19

C          1.45600       -1.69140       -0.00010 
C          2.05300        1.03200       -0.00020 
C          2.77420       -1.26130        0.00020 
C          3.06850        0.08860        0.00040 
H         -0.83830        3.50600       -0.00010 
O         -1.28450       -2.36080        0.00020 
O         -3.22260       -0.43550        0.00000 
O         -0.06540        2.92480        0.00000 
C         -0.98830       -1.18440       -0.00010 
C         -0.36790        1.60840       -0.00020 
C         -2.04610       -0.12530        0.00030 
C          0.42700       -0.75770       -0.00020 
C          0.72390        0.61950       -0.00000 
C         -1.67310        1.22720       -0.00000 
H          1.23000       -2.74750       -0.00470 
H          2.29280        2.08510       -0.00010 
H         -2.44250        1.98510        0.00060 
H          3.57530       -1.98560        0.00060 
H          4.09910        0.41160        0.00060 
