27
 
C 3.29336 2.00983 0.29195
O 2.78561 0.68900 0.16544
C 1.43765 0.53055 0.01424
C 0.98049 -0.80562 -0.10716
C -0.38369 -1.05403 -0.26645
C -1.32150 -0.00621 -0.30987
C -0.85991 1.30265 -0.18318
C 0.50773 1.56949 -0.02516
C -2.80260 -0.30459 -0.49960
C -3.67457 0.24338 0.60328
C -4.70749 1.07311 0.42616
O 1.94581 -1.76934 -0.05561
C 1.54866 -3.12944 -0.15487
H 4.37438 1.90328 0.39511
H 3.06975 2.61214 -0.59840
H 2.88987 2.51075 1.18178
H -0.73551 -2.07549 -0.36316
H -1.56328 2.13044 -0.20230
H 0.83701 2.59780 0.06961
H -3.14780 0.09594 -1.46218
H -2.93573 -1.39401 -0.55101
H -3.41583 -0.07767 1.61314
H -5.30275 1.42772 1.26293
H -4.99346 1.42358 -0.56373
H 0.87143 -3.41129 0.66227
H 1.06456 -3.33872 -1.11782
H 2.46857 -3.71127 -0.07839

            