20 

C          1.32790        1.41030       -0.00520 
C          0.85500       -0.96510       -0.01100 
C          2.67680        1.13600       -0.01000 
C          2.20610       -1.22840       -0.01660 
H          4.84060       -0.52610        0.86110 
C          0.40260        0.35970       -0.00570 
C          3.12080       -0.18140       -0.01570 
O         -3.71090        1.05990        0.00970 
O          4.45200       -0.44650       -0.02080 
O         -4.20990       -1.10630        0.00420 
C         -3.32010       -0.09200        0.00470 
H         -5.13340       -0.81940        0.00810 
C         -1.03870        0.64670       -0.00020 
C         -1.92960       -0.36890       -0.00070 
H          0.98410        2.43400        0.00330 
H          0.14520       -1.77910       -0.01170 
H         -1.38560        1.66940        0.00420 
H          3.39150        1.94570       -0.00960 
H          2.55610       -2.25010       -0.02070 
H         -1.58260       -1.39160       -0.00510 
