22
 
C 2.47269 0.25561 0.01418
C 1.09703 -0.27882 0.01248
C 0.03633 0.55222 0.01447
C -1.38232 0.18473 0.00835
C -2.34734 1.21011 -0.01303
C -3.71178 0.91487 -0.02295
C -4.13852 -0.41503 -0.01037
C -3.19135 -1.44684 0.01250
C -1.83068 -1.15168 0.02169
O 2.79331 1.43195 0.03167
O 3.37759 -0.75774 -0.00976
C 4.76138 -0.36502 -0.01454
H 1.00332 -1.35958 0.00514
H 0.25330 1.61974 0.01800
H -2.01881 2.24633 -0.02293
H -4.43906 1.72158 -0.04038
H -5.19932 -0.64898 -0.01783
H -3.51685 -2.48319 0.02350
H -1.11149 -1.96449 0.04044
H 4.97132 0.28723 -0.86613
H 5.01183 0.16243 0.90985
H 5.32600 -1.29438 -0.09113

            
