35

O 3.3281681106 1.2232799043 -0.1415989494
O 4.7511525734 -0.4983490899 0.5781525910
O -0.2481332657 -1.6977051471 -0.4796351814
O -1.1510970289 2.9032235973 0.5177939363
O -4.6827087282 -2.1736961953 -0.2436152371
O -1.8251008070 -3.2730665212 -0.6551341024
C 2.7015960527 -1.0898314799 -0.5357595883
C 1.5189016735 -0.1793404324 -0.3112508428
C 3.8887681128 -0.0730409571 -0.4613359872
C 0.1554665516 -0.4218395499 -0.2572116969
C -0.7630621723 0.6298636134 0.0200560545
C 1.9766863837 1.1083315126 -0.0646274629
C -2.1489079028 0.2654761087 0.0449321236
C -3.3436230597 1.1623251240 0.3052126977
C 3.0339984717 -2.0144461936 0.6185907674
C -2.5414508013 -1.0317432912 -0.1819160564
C -0.2339908152 1.9373479028 0.2555208128
C -4.5678935925 0.2359552688 0.1882818879
C 1.1378053978 2.1882984950 0.2149479793
C -4.0145993834 -1.1696300116 -0.1061194357
C 4.1637726561 -1.5953195258 1.1830113578
C -1.6081076564 -2.1087549405 -0.4534308423
C -0.6995360893 4.2332755266 0.7583827262
H 2.6476036593 -1.6165140823 -1.4951261937
H 4.4857096789 0.0609999260 -1.3648954068
H -3.3563770815 1.9898252562 -0.4104815408
H -3.2545792335 1.6278061586 1.2919795090
H 2.4212993346 -2.8471009828 0.9319287728
H -5.2451046898 0.5270920474 -0.6210732612
H -5.1660108208 0.2010622707 1.1040678075
H 1.5587379638 3.1680532392 0.3910340151
H 4.7168080850 -1.9795404210 2.0298314305
H -1.5991457670 4.8236200200 0.9352808374
H -0.0514431754 4.2808377039 1.6410922746
H -0.1649026345 4.6352451463 -0.1102857962
