59

C 2.2760093626 -1.3250704139 -0.4404293808
C 2.8088632858 -2.6969811281 -0.0253295879
C 0.0056396669 -1.9469632953 -0.1575327798
C 3.0928047386 0.9189217555 -0.6834627283
C 1.7456700808 -3.7430482513 -0.3513065720
C 0.3886061464 -3.3766169281 0.2556174484
C -2.7624189704 0.3663496981 0.4488960650
C -2.8070489536 1.8578603612 0.0993185322
C -5.1197670782 0.0964909307 0.1522470216
C -4.1989685442 2.3944279484 0.4231243988
C -5.2984812549 1.5717142366 -0.2390997539
C 5.1849003992 2.1039690928 -1.4634406658
C 4.7069842876 2.0376329156 0.9086262236
C 6.3584905505 2.8157050333 -1.2068246691
C 5.8808068459 2.7433080195 1.1630074050
C 6.7073255603 3.1347812301 0.1056625904
C -1.2652827116 -1.4604509403 0.5098234321
C -6.1238013213 -0.8137782006 -0.5302358960
H 4.6715691199 -2.4202946116 -0.4903943301
H 2.9605195958 -5.2465925527 -0.2270801747
H -0.2735961956 -5.1598700453 -0.0447356681
H -0.9906497442 2.4610697146 0.5661201337
H -3.5766777597 4.2122075558 0.3527508380
H -6.5608669834 2.9810600415 0.1128535995
H -6.6847655814 -2.6709337040 -0.3678709078
C 4.3560064406 1.7145316231 -0.4081819521
O 3.9859526650 -3.0582284089 -0.7328839748
O 2.0939464629 -5.0284106965 0.1446063983
O -0.6162958476 -4.2664813499 -0.1944470704
O -1.9035429639 2.6433710301 0.8523014128
O -4.3505024042 3.7445121504 0.0036011668
O -6.5805725796 2.0149493416 0.1811140361
O -6.0707896590 -2.0892133415 0.0971222603
O 3.2245056789 -0.3594193428 -0.0586133293
O -1.5484518779 -0.1544205274 0.0135904972
O 1.0657466100 -1.0601390284 0.2264182133
O -3.8084057028 -0.3243232983 -0.2275236052
C 1.8908235150 1.6529022979 -0.2111033669
N 0.9680872160 2.2748744660 0.1121853541
H 2.9701745144 0.7876686971 -1.7691625951
H -2.8780811051 0.2350579960 1.5422415596
H 2.1276632229 -1.2959827630 -1.5372425921
H 2.9803953065 -2.6754049085 1.0609536633
H -0.1339336829 -1.9118383424 -1.2494761129
H 1.6277201405 -3.7774836609 -1.4476601400
H 0.4853174785 -3.4091290482 1.3535791076
H -2.0801017273 -2.1539857890 0.2782943406
H -1.1215958094 -1.4268798178 1.6007543928
H 4.9148353630 1.8530230207 -2.4861840440
H 4.0615509499 1.7338939105 1.7275036354
H 6.9972226848 3.1178772375 -2.0314201306
H 6.1498758188 2.9917182814 2.1854232119
H -2.6237686876 1.9450443117 -0.9828542453
H 7.6195699437 3.6889963368 0.3066491385
H -5.2533139561 -0.0006648814 1.2420726324
H -4.3373196375 2.3222754158 1.5158981823
H -5.1914749564 1.6617663885 -1.3331392060
H -7.1166745206 -0.3515916711 -0.4386256437
H -5.8649334352 -0.8740640914 -1.5990957690
