30

C 2.22960 1.81070 -0.01420
C 4.19310 0.40880 -0.00840
C -2.71150 1.25970 0.00010
C -3.07290 -1.13180 0.01780
C -4.07400 1.46090 0.00130
C -4.43400 -0.92150 0.01890
H 4.13060 -2.32020 -0.87200
H 4.62700 3.10240 0.85580
H -6.67230 0.62840 -0.87030
C 3.39980 -0.72390 0.00100
C 3.60910 1.67050 -0.01570
C -2.19920 -0.04080 0.00840
C -4.93910 0.37320 0.01110
O 1.57930 -2.90130 0.01970
O 3.96790 -1.95640 0.00910
O 4.39710 2.77590 -0.02490
O -6.28140 0.57600 0.01270
C 1.12400 -1.76900 0.01300
C -0.74070 -0.26110 0.00670
C 2.00600 -0.58960 0.00310
C 1.41820 0.68730 -0.00490
O 0.07350 0.80630 -0.00280
C -0.27210 -1.53810 0.01540
H 1.78730 2.79600 -0.01580
H -0.96080 -2.36990 0.02290
H 5.26880 0.31310 -0.00970
H -2.04000 2.10540 -0.01160
H -2.68120 -2.13820 0.02460
H -4.47080 2.46530 -0.00510
H -5.10970 -1.76390 0.02610
