26

N 2.4613112924 1.7822150592 -0.5434682482
C 2.2938529674 0.5909064649 0.2793397552
H 2.2857061660 0.8872858109 1.3360459032
C 1.0257639816 -0.2700055376 0.0141695562
C -0.2837844759 0.4792410219 0.2819970034
C -1.5173140628 -0.4049036158 0.0828892381
N -2.7413826230 0.3707939661 0.3077176328
C -3.9998301948 -0.1890624646 0.0700516852
N -4.0882958861 -0.8778982038 -1.1442993617
N -4.9226733065 -0.0393612715 0.9496798682
C 3.5098397818 -0.2954419071 0.0543653296
O 4.1377562395 -0.3585980634 -0.9800973520
O 3.7842591307 -1.0703563904 1.1290250329
H 2.7139379616 1.5030989123 -1.4886820350
H 1.5999888941 2.3181664383 -0.5848526567
H 1.0531739559 -0.6167337199 -1.0280765659
H 1.0721266012 -1.1631275211 0.6504819122
H -0.2780487300 0.8668539174 1.3111811464
H -0.3745406791 1.3493291305 -0.3801637579
H -1.5261103140 -0.7956328337 -0.9391656629
H -1.4597026404 -1.2808448255 0.7503259845
H -2.7664126000 0.7993627887 1.2276953637
H -3.5785249357 -0.4496327559 -1.9079142731
H -5.0341419556 -1.1175795411 -1.4093364921
H -5.8226243568 -0.3700756610 0.5979267771
H 4.5333397885 -1.6354391977 0.8723642163
