42

C -0.0219387754 0.2767832606 -0.3503826058
C -0.1209804552 -0.5039670713 0.9975211076
C 1.4298679469 0.7533266157 -0.5770631001
C -1.0352115489 1.4507896286 -0.4583025170
C 2.3811809478 -0.4594062815 -0.4560826713
C -0.6935353084 2.5940699153 0.5392174956
C -1.9701355715 -1.5252344569 -0.0503332531
C 3.8419117595 -0.1605654606 -0.8122819267
C -1.6378128289 3.8008999230 0.4204725745
C -2.7373593442 -2.8371226005 -0.0551316738
O 3.1789889474 -1.6454622601 1.4964625663
C 1.7788046658 1.9165860676 0.3730663330
C 0.7573244261 3.0549081501 0.2989575379
C 2.2818221061 -1.0772099251 0.9285575554
O 1.0932443783 -0.9161622760 1.5987935672
C -2.5127905594 0.9655553185 -0.4665511831
C -2.8509509096 -0.3035848023 0.3313688840
O -0.2044237324 -0.6568711436 -1.4307069023
O -0.8723754903 -1.6897162937 0.8179452244
O -1.4925128489 -1.3679609976 -1.4039896600
H -0.5887672295 0.1181904582 1.7677915200
H 1.4788816551 1.1212242117 -1.6104091435
H -0.8505396929 1.8717945134 -1.4565398856
H 2.0083437076 -1.2235378042 -1.1493479617
H 1.8439725027 1.5491706674 1.4049106571
H 2.7736525926 2.2979429201 0.1198075214
H -0.7671017108 2.2185814874 1.5713954470
H -3.1698883392 1.7713101815 -0.1286454966
H -2.7874328129 0.7658277951 -1.5052184469
H 4.2954996958 0.5499605036 -0.1156026931
H 4.4346320729 -1.0765524310 -0.7731346434
H 3.9068657687 0.2538623884 -1.8236749840
H 0.8098519116 3.5265146347 -0.6936333237
H 1.0217971266 3.8336388557 1.0242951203
H -2.6630963856 3.5713020815 0.7229041216
H -1.2883590097 4.6165296044 1.0628190792
H -1.6672684929 4.1791870556 -0.6086900023
H -3.8955364643 -0.5562325549 0.1190202077
H -2.7938855768 -0.1511356058 1.4154628507
H -3.2362104826 -2.9768150453 0.9081605870
H -3.4913792491 -2.8262128567 -0.8467204356
H -2.0450493921 -3.6629063708 -0.2277874484
