17

N -0.1360879864 1.6015149084 0.4196668901
C -0.4422987269 0.3280703902 -0.2217279251
H -0.2712847279 0.4146352494 -1.3003947097
C 0.5289617697 -0.7598263403 0.2774598132
C 1.9281182338 -0.4873842473 -0.2791251927
N 2.9547791718 -0.5975880915 0.6166707360
O 2.1078556754 -0.2507093936 -1.4643411132
C -1.8898825662 -0.1109974299 -0.0035188131
O -2.6600422827 0.4045456017 0.7786831362
O -2.2309828239 -1.1695794539 -0.7753260881
H -0.5065608563 2.3642617064 -0.1416657963
H -0.6422589691 1.6469086467 1.3035983607
H 0.5176881669 -0.7964010155 1.3732362654
H 0.2159246310 -1.7415814476 -0.0940660497
H 2.7807221340 -0.5486414920 1.6081321147
H 3.8711528766 -0.3259670294 0.2893011146
H -3.1540737198 -1.3842205617 -0.5562327431
