15

N 0.4387672301 1.6851906193 0.0499137257
C 0.4983292500 0.2383296387 0.2793185953
H 0.3904243243 0.0597590256 1.3556585856
C -0.6084046802 -0.5786837649 -0.4445554750
C -2.0864166453 -0.1729839611 -0.0511142539
O -2.2312610699 0.9491466612 0.5130792574
O -2.9489730072 -1.0163652470 -0.3697256998
C 1.8420839970 -0.2969437232 -0.1514183845
O 2.5225715706 0.1036093269 -1.0780491217
O 2.2381004134 -1.3838852224 0.5794722817
H 0.6225420834 1.8351290084 -0.9432726867
H -0.5629305260 1.8778166196 0.1989711543
H -0.4928496076 -0.4391452697 -1.5301655228
H -0.4910398700 -1.6515323299 -0.2514805610
H 3.0587765374 -1.6787213814 0.1500081056
