46

C -2.3810067175 -0.7957485309 -0.4277790801
C -3.6628998931 -0.8213683895 0.4512861894
C -1.1258289942 -0.8833720852 0.4480879339
C -4.1188446587 0.6571497622 0.5628117248
C 1.2275332545 -0.6966574927 0.1723457912
C 2.3146740435 -1.3944176837 -0.6455249583
C 3.6812731116 -0.9032828596 -0.1859648287
C 2.5885918406 1.2058713471 0.5998520382
C 3.7518389603 0.6220669326 -0.2187157037
C -1.6013875886 0.8805329025 -2.3119480499
C 2.5458466317 2.7219061504 0.5588899440
H -5.8317456365 1.5954522704 0.6705839506
H -1.3721558672 2.3755809217 -3.5356656281
H 1.3828203618 -3.0918283124 -0.6685423649
H 4.6658165963 -2.3571115730 -1.0066910567
H 5.6703020137 0.5423334361 -0.0865457277
H 1.5719435515 4.1285878365 1.4874043583
O -5.5480371192 0.6833989375 0.5247390506
O -2.0531850478 2.0868943933 -2.9161871839
O 2.2868239945 -2.8027491358 -0.4756888714
O 4.7337267640 -1.3915725434 -1.0088349425
O 4.9782233947 1.0793405807 0.3272603650
O 1.5961379678 3.1642086631 1.5183951082
O -0.0074891278 -1.0662431263 -0.3854005369
C -2.4931992708 0.5319198131 -1.1603962677
O -1.1543663526 -2.0062042923 1.3350879693
O 1.3529006283 0.7105051458 0.0671527521
C -3.4370792565 1.3079888409 -0.6174696608
C -3.4763441250 -1.5718854437 1.7362646813
C -2.3072238052 -2.1252839018 2.0705803981
H -2.3384971379 -1.6537548025 -1.1118052542
H -4.4579027522 -1.3034674522 -0.1333132080
H -1.0103223670 0.0287790173 1.0502357757
H -3.7705667354 1.1041869756 1.5094556113
H -3.6747340559 2.3087663363 -0.9625597618
H -4.3316604324 -1.7179962878 2.3880760207
H 1.2837728875 -1.0091952706 1.2279214971
H -2.1525014892 -2.7386468263 2.9525002345
H -1.6049443970 0.0433098608 -3.0333425796
H -0.5669067694 0.9722299824 -1.9475256777
H 2.1653210658 -1.1145437770 -1.7001948398
H 3.8324047273 -1.2288683099 0.8569458971
H 2.6985265639 0.8936343546 1.6507225757
H 3.6409655465 0.9514874298 -1.2658461815
H 3.5572246354 3.0915211096 0.7775661375
H 2.2747610560 3.0368450963 -0.4613236411
