30

C 3.2620687189 -0.4691470843 -0.4447195128
C -1.1908830409 -3.2530236594 -0.0877781318
C -1.8308301355 3.0070264629 0.1511526248
C 3.9045798441 -0.7823849529 0.9188510352
C -1.4991217494 -1.7844954978 -0.0182842417
C -0.8326759133 1.8746161280 0.0133372546
C 1.8405044647 0.0619779411 -0.3232560166
C -2.6810365312 0.1918994344 0.1675154388
C 0.8059358802 -0.8882522765 -0.2361494818
C -2.7672605771 -1.2156938054 0.1348796854
C 0.5141407187 2.2320422672 -0.1254476995
C 1.6653761762 1.4468277967 -0.2707475457
C -0.5614803508 -0.7176377986 -0.0860586376
C -1.3375429917 0.5617972549 0.0338263171
H -3.5190245332 0.8673191149 0.2745229680
H 1.1327248204 -1.9265075776 -0.3015274789
H -3.6893100041 -1.7832116940 0.2156927496
H 0.7053944903 3.3031422343 -0.1218627429
H 2.5846660908 2.0257110404 -0.3600571549
H -0.6153108113 -3.6003861721 0.7804153222
H -2.1153094727 -3.8376462549 -0.1200744158
H -0.6099522513 -3.5132918219 -0.9816839999
H -2.3939381633 2.9216857969 1.0871607010
H -1.3372766568 3.9815146777 0.1389790252
H -2.5628183008 2.9865020880 -0.6641827906
H 3.8827492063 0.2623074657 -0.9755465383
H 3.2628996814 -1.3774946745 -1.0595260683
H 4.9239261009 -1.1641570523 0.7953212035
H 3.9500507058 0.1156273617 1.5438692489
H 3.3239545849 -1.5346667426 1.4634788829
