61

C 6.6380372805 2.1639320883 0.9316023822
C 5.2909981237 2.3912689936 -1.0677886001
C -7.4945711952 1.0217461819 0.9647146153
C -6.1799957219 1.9794326636 -0.8274675411
C 5.9564034437 3.5748868445 -1.3747386695
C -7.1622865226 2.9455793829 -1.0263891855
H -0.6794772913 -2.9164198454 -3.2802221299
H 0.6577807330 -0.2071727130 1.5558010824
H 8.6204587384 4.6342409988 1.0830640378
H 7.3799812146 5.6342038654 -1.5591287894
H -10.1546782286 2.7228948269 1.2609399704
H -9.1421993489 4.4864793406 -1.0563577573
C 5.6225961172 1.6656060039 0.0912893849
C -6.3290327553 1.0025307736 0.1737774599
C 7.3061857327 3.3436980481 0.6313282902
C 6.9597746638 4.0526226342 -0.5331210107
C -8.4785183986 1.9833866979 0.7720406886
C -8.3069898585 2.9529071447 -0.2316733486
O 2.4670005184 -5.1844117476 1.1696469062
O 3.7699146280 -1.9930608052 1.4499999901
O -3.4642117049 -2.1002894759 1.1370135927
C 0.8309061639 -3.5362448557 -1.1260814884
C 0.8668327632 -2.8424720457 1.3005902103
O -1.1398264968 -2.9971232767 -2.4351326135
O 0.2149477454 -0.5273469119 0.7591892212
O 3.7331670649 -4.3468195000 -0.4944042958
O 8.2840489185 3.8060533136 1.4577903299
O 7.6728667820 5.2063405230 -0.7443614345
O -9.5967223465 1.9849595247 1.5498911027
O -9.3313300728 3.8615682824 -0.3450221547
C 2.6805034681 -4.3184448009 0.3517998506
C 3.4330065645 -1.4773414328 0.3972790976
C -3.2415656638 -1.2919523492 0.2515794854
O 2.4655151962 -1.9898275473 -0.4064233404
O -2.0999975593 -1.2756097534 -0.4816418124
C -1.1189066954 -2.2780157834 -0.1690241277
C -0.2729467207 -2.5031661456 -1.4179561582
C -0.2679091003 -1.8431914452 1.0343565534
H 4.2517966617 -5.1301451707 -0.2440728647
C 3.9853734120 -0.2395101693 -0.1759193795
C -4.1404932006 -0.2030472878 -0.1730065210
C 4.9632920011 0.4209728856 0.4748597715
C -5.3259432847 -0.0264606783 0.4402626423
C 1.7303917685 -3.1456707545 0.0626555472
H -1.6385495616 -3.2063108219 0.0917830191
H 0.3512323592 -4.4960780072 -0.9030224137
H 1.4555404074 -3.6753692203 -2.0149348494
H 1.5019661488 -2.4835812560 2.1140342983
H 0.4462784115 -3.7952209892 1.6382594509
H 0.1761277519 -1.5458464834 -1.7097267241
H -0.9278922297 -1.8278849616 1.9120703615
H 3.5583479688 0.0991408729 -1.1133660939
H -3.7850432450 0.4315644384 -0.9777532374
H 5.3036115492 -0.0282531824 1.4069636815
H -5.5622268255 -0.7311717390 1.2366814723
H 6.9158262556 1.6290908176 1.8346660224
H 4.5109487946 2.0356701060 -1.7319745490
H -7.6428266816 0.2809848278 1.7443471971
H -5.2954841042 1.9892343483 -1.4546093162
H 5.6969390086 4.1335896073 -2.2713873611
H -7.0411735449 3.6991751198 -1.8017699486
