14

N 0.1120492974 1.6759262645 -0.3383136887
C -0.1740115419 0.2526884639 -0.3806852621
H -0.0039314080 -0.1097684447 -1.4008491304
C 0.7767531184 -0.5148340943 0.5547039943
S 2.5278570105 -0.1261868890 0.1096256486
C -1.6243142844 -0.0801985225 -0.0039958961
O -2.4092867872 0.7011444122 0.4858769605
O -1.9384187566 -1.3707162962 -0.2689445662
H -0.3738835713 2.1527406240 -1.0932970277
H -0.2611447018 2.0672425732 0.5250654984
H 0.5923148860 -0.2220732902 1.5938365998
H 0.6053004068 -1.5881061087 0.4596808880
H 3.0257445118 -1.3147212263 0.5124956974
H -2.8609781795 -1.4947574660 0.0142002840
