12

O 1.6085067422 0.1412225687 -1.1761732351
C 0.7806121965 0.5512952267 -0.1061196918
C -0.6953280131 0.3195120579 -0.4870524539
C -1.7049576321 0.6873216647 0.5577231762
O -0.9336502036 -0.2157372959 -1.5767739325
O 0.9129767640 -0.2781946443 1.0875864386
H 0.9995401551 -0.3798546240 -1.7875660796
H 0.9872173733 1.6035570925 0.1233166799
H -1.4041317049 0.1946286540 1.4889277987
H -1.6803382931 1.7707545700 0.7340891512
H -2.7081155501 0.3827447871 0.2556259834
H 1.8864681659 -0.4651499571 1.1878160651
