19

O 0.7319292407 2.5017689641 -0.0001441707
C 0.6124993980 1.1548228443 -0.0002296230
C 1.6905911452 0.3239482289 -0.0000903530
C 1.5566261684 -1.1156984964 -0.0002141198
O 0.2833746122 -1.6302749193 -0.0003799264
C -0.8244053645 -0.8171019173 -0.0004392340
C -2.0694372007 -1.4450024522 -0.0004316901
C -3.2216319205 -0.6652249170 -0.0005059264
C -3.1337907431 0.7344456793 -0.0006152838
C -1.8924814835 1.3560948319 -0.0005473337
C -0.7146145126 0.5867077887 -0.0004343806
O 2.5211252979 -1.8624237563 -0.0001709405
O 2.9589657854 0.8266050489 0.0001626439
H 1.6783948637 2.7167806995 0.0000743583
H -2.1095734659 -2.5288956554 -0.0003749917
H -4.1939255729 -1.1483101588 -0.0004798726
H -4.0380340493 1.3350457885 -0.0007371092
H -1.8084889774 2.4372237330 -0.0005793230
H 3.5460767789 0.0480886658 0.0000372763
