133

C 6.4981193715 -4.2081478056 -1.9146549968
C 13.1006061642 2.0096949379 -0.9799940975
C 4.6948472948 -5.4414801922 1.2056292199
C 7.8563873011 -4.8979868556 -1.5328487375
C 14.6637742217 0.9711177666 0.6604026586
C 10.1868841416 4.6474045007 0.4874775023
C 12.0461646317 1.1390892566 -0.2780682288
C 10.5308285612 -2.6165397227 -2.2698178188
C 11.3957020730 3.7853579966 -1.4972185156
C 16.0669323615 0.3840273169 0.5318993911
C 10.8669132890 5.6214869653 1.4501510939
C 12.7171353814 3.4660437737 -0.7552582521
C 5.4234111432 -4.8104164726 -0.9705046730
C 16.8325216643 0.6273944121 1.8059269934
C 9.8383590189 6.1645750385 2.4104330172
C 5.9407363691 -6.2313555647 -0.6356485977
C 9.1444452930 -2.6487318793 -1.5493764468
C 8.8179492710 -3.9599664257 -0.7703833405
C 8.8658995377 7.0087743387 1.6228849905
C 16.9151134307 2.1225884422 2.0038343627
C 10.5748152940 2.5127647019 -1.6933536726
C 5.1909740667 -4.2068943018 0.4356134590
C 8.1966728532 6.1442434385 0.5260767177
C 15.5069344284 2.6935974494 2.2589385355
C 12.8693048227 -0.8256960635 -1.6798338430
C 2.4421277550 -6.3750568808 2.9561656345
C 9.0699480934 2.6672595334 -1.8604016361
C 6.1169855893 -4.6447545435 -3.3500379415
C 10.6674067492 -3.6418204062 -3.4205982773
C 4.1819948159 -3.0553944930 0.4838773624
C 15.2883206187 4.0622690914 1.6210164329
C 8.2546837487 6.7759867285 -0.8633896432
C 2.5827193938 -7.5995284957 3.8757433603
H 12.1012374587 5.4043416449 2.9670474649
H 16.7760586074 -1.4447935928 0.3382769427
H 13.6540708112 5.1975662153 -1.0086824886
H 9.9343926724 7.4220440695 3.9315532560
H 18.7144633812 0.3700968603 2.3245123098
H 7.3714144296 8.2066902282 2.2452796312
H 18.0792439916 3.2319520731 3.2128847141
H 8.7455298881 0.9068100756 -1.0600912597
C 7.4752378135 -6.1504069453 -0.6881123911
C 6.6279519252 -2.6738497876 -1.8655931411
C 10.0989406543 -4.7249331691 -0.3201015021
C 7.9692616421 -2.2246835904 -2.4690659180
C 10.6903789920 -1.1818456721 -2.8523990160
C 12.9634924534 -2.2980671214 -1.3102673652
C 4.7926096042 -5.4258057065 2.7395233950
C 2.7344772175 -6.7718495514 1.4895011872
C 12.1379937240 -0.7077872707 -3.0150231873
C 3.4005753427 -5.2300271643 3.3640944495
O 11.8921599977 4.9088908798 2.1604388274
O 15.9075326467 -1.0211385551 0.2773952495
O 13.7758871341 4.2816088049 -1.2941024501
O 10.5640424780 6.9600118270 3.3603421280
O 18.1383875569 0.0649860226 1.6092193501
O 7.9275657902 7.5026380318 2.6032859788
O 17.7866349150 2.3144072515 3.1412318088
O 8.4866344774 1.3465907414 -1.8822959495
O 14.4313863361 1.7144700105 -0.5316885053
O 10.6992570116 4.8650689177 -0.8280687934
O 12.1176314996 -0.2331779621 -0.5762380695
O 5.5179113849 -6.5095557146 0.7304908505
O 10.7402482147 1.6766766466 -0.5218668677
O 14.4804585434 1.7566066641 1.8272624391
O 8.7734948397 4.8093414875 0.5120196853
O 3.3484485958 -5.6666510861 0.7895193580
C 11.3575300304 -3.8905452008 -0.3301358926
C 11.5977402933 -2.9521884780 -1.2237808323
H 9.2383705248 -1.8796908566 -0.7891057379
H 8.3057018790 -3.6515159340 0.1339735468
H 5.5344191166 -6.9897944828 -1.2853162942
H 8.3529235146 -5.2089361628 -2.4436640686
H 4.4605672358 -4.8581898620 -1.4608958010
H 1.4249240583 -6.0061238991 3.0257096236
H 13.1210430919 1.8245823328 -2.0409567236
H 13.9781982132 0.1541800908 0.7547082657
H 10.3593705119 3.6381556209 0.8089494979
H 12.1712318946 1.2287948769 0.7865522327
H 11.6605846714 4.1909821685 -2.4607506633
H 16.5815553564 0.8702998961 -0.2835360859
H 11.2911590700 6.4419626313 0.8877739586
H 12.6027648744 3.6465487600 0.3019526375
H 16.3310273811 0.1688887874 2.6470290131
H 9.3072371314 5.3608142769 2.8991451112
H 9.4120203613 7.8347458006 1.1820252049
H 17.3586462524 2.5626057827 1.1180709291
H 10.9499280669 1.9889779040 -2.5591901226
H 7.9166163809 -7.0564141618 -1.0832301452
H 7.8066706952 -6.0387175291 0.3342172933
H 6.1377326545 -3.9120826992 0.8715124490
H 7.1766340343 5.9780930249 0.8327669228
H 15.3875728160 2.7411079854 3.3298421129
H 6.5825309369 -2.3206019587 -0.8434578742
H 5.8006623803 -2.2188412975 -2.4012879151
H 12.1114620572 -4.1465084956 0.3932363115
H 9.9435319660 -5.1352271851 0.6704715364
H 10.2530451904 -5.5758488555 -0.9800134812
H 7.9741670476 -1.1477552416 -2.5828656187
H 8.0800875497 -2.6557082406 -3.4550611569
H 10.1878405538 -1.1408424246 -3.8120589766
H 10.1917649290 -0.4768173376 -2.2095773376
H 13.4973577132 -2.3979440993 -0.3753519176
H 13.5506964767 -2.7913629761 -2.0815139368
H 5.4714890220 -4.6440064884 3.0583963941
H 5.2137225201 -6.3736211647 3.0463787868
H 13.8558553918 -0.3886773434 -1.7144162448
H 6.8549111657 -4.3132840871 -4.0701302065
H 6.0501306112 -5.7262722558 -3.4175359850
H 5.1546712994 -4.2281676428 -3.6287155233
H 1.8301727568 -7.0128035349 0.9523020718
H 3.4079927503 -7.6175490523 1.4508496040
H 12.1397779009 0.3122900000 -3.3840860978
H 12.6749866154 -1.3063661518 -3.7428406673
H 11.6427654039 -3.5445206436 -3.8863081109
H 9.9184544794 -3.4779501149 -4.1863069874
H 10.5755093813 -4.6556683152 -3.0570876960
H 2.9913834439 -4.2879047722 3.0246734367
H 3.4777888896 -5.1852638239 4.4448041906
H 8.6548947011 3.2593833747 -1.0651526102
H 8.8454495408 3.1289812087 -2.8094463660
H 4.5064270789 -2.2184863791 -0.1187036596
H 3.2262062206 -3.4040227192 0.1230521968
H 4.0549468565 -2.6998224602 1.5014551318
H 16.0578490828 4.7554315630 1.9494869080
H 15.3061355782 3.9794565093 0.5436325116
H 14.3211390346 4.4505173357 1.9101451580
H 7.7898399264 7.7561897479 -0.8510303140
H 7.7260128696 6.1507514117 -1.5706139140
H 9.2791007982 6.8640744604 -1.1950236161
H 2.3043816273 -7.3491379812 4.8934353153
H 3.6055881290 -7.9605440073 3.8800829658
H 1.9416392314 -8.4108103843 3.5435131284
