45

C 1.6698031257 -0.5548939705 -0.2201610143
C 0.1958787835 -0.7072128264 0.1601381335
C 2.2672676115 0.8129209861 0.2115337928
C -0.6120716159 0.4193536292 -0.5408501317
C 3.7135277595 0.6093239389 -0.2783422127
C 4.0718790548 -0.8279629115 0.1628790322
C -2.9849099563 1.3678847068 -0.4745608441
C -4.0664829217 -1.0630881733 0.2753348285
C -4.3620960951 1.2585843713 -0.2949749376
C 2.2677107762 1.0411719887 1.7397394692
H 5.4736447208 1.4005636804 -0.1599551797
H 5.3318375607 -2.1910590023 -0.4589600965
H -6.7111816447 0.6759176510 0.1138135951
C -4.9094305233 0.0310385900 0.0849427518
C 2.7159150675 -1.5922653584 0.2452606576
C -0.4096178509 -2.0670164548 -0.2085655119
C 1.4794640220 1.9299128117 -0.4917678629
C -0.0363650942 1.8204233377 -0.2210786542
C -1.8298335471 -2.1820529786 0.3518840381
O 4.6025270218 1.6019131038 0.2080364974
O 4.9980409774 -1.3482350445 -0.7933681968
O -6.2517463930 -0.1576154026 0.2804328992
C -2.1157797103 0.2842635645 -0.2828819581
C -2.6841847389 -0.9517780680 0.0968382545
H 1.7041534170 -0.5604579624 -1.3219980090
H 0.0917973543 -0.5851526103 1.2495618034
H -0.4562691792 0.2622101731 -1.6231281740
H 2.5191240432 -1.9310104148 1.2692577362
H 2.7384177455 -2.4786154747 -0.3963625791
H -0.4228416382 -2.1727794164 -1.3028082463
H 0.2064565878 -2.8870798747 0.1787173420
H 3.7105733336 0.6081400619 -1.3811273666
H 1.8422531506 2.9167208900 -0.1802883294
H 1.6555460411 1.8589198470 -1.5747512754
H 2.7205195575 0.2097071756 2.2880367553
H 2.8501149581 1.9371798240 1.9699733194
H 1.2587832424 1.1788843759 2.1354580640
H 4.5504395076 -0.7741590119 1.1512471061
H -0.5437241244 2.5799629391 -0.8252576088
H -0.2589146182 2.0693276135 0.8239496705
H -2.3342134961 -3.0675105195 -0.0536217649
H -1.7704953845 -2.3445256397 1.4385216929
H -2.5872109767 2.3310482989 -0.7767697980
H -4.5072652130 -2.0123905866 0.5675971702
H -5.0048406984 2.1228881426 -0.4521748581
