8

C -0.7802993989 -0.1772311094 0.4046082111
H -0.7478231799 -0.5239428430 1.4431966346
C -1.2861397256 -1.2747046849 -0.5343971817
H -1.3185763693 -0.9279993913 -1.5729827320
H -0.6387741975 -2.1577470401 -0.5020868748
H -2.2972918950 -1.5973761174 -0.2634579949
H -1.4276883122 0.7057879990 0.3723246087
H 0.2308830783 0.1453831871 0.1337153291
