64

O 2.1922189901 1.7306318220 1.8866141998
O 3.9134833993 -0.3903422882 -1.1886826608
O -1.6258036579 -5.5338773700 0.8202304854
O -3.4850933122 -3.5327230734 1.3593694025
O -3.0093658732 4.0049278872 0.3503211604
O -2.8110591953 1.1597579413 -3.3314490456
O -3.7222572546 3.3511233551 -2.1186213214
O 1.0111445369 3.6503872524 2.1788950310
O 6.1678880477 -0.3254726777 -1.0138896122
C 1.3763169869 0.2355305843 0.1365021947
C 2.3606418083 -0.8625658866 0.6031277917
C -0.0645236826 -0.0239105225 0.6725672430
C 1.9057204225 -2.2226912068 0.0572824334
C -0.4572228010 -1.5042579626 0.6600776415
C 0.4613200672 -2.5276130536 0.3889889367
C 1.8487727973 1.6513691752 0.4762739494
C 3.8193019336 -0.5833373475 0.2440301405
C -1.0810219625 0.8560006621 -0.0551248518
C -1.7798084200 -1.8518876833 0.9799410715
C 0.0242705030 -3.8605771367 0.4269198429
C -1.4777098021 0.5491865716 -1.3654196122
C -1.5876211321 2.0034953080 0.5632853968
C -2.2040880054 -3.1756426743 1.0279447559
C -1.2861207007 -4.2050577037 0.7353179559
C -2.4634770569 2.8397114238 -0.1345072964
C -2.3660591134 1.3770122699 -2.0596187015
C -2.8643864490 2.5375157884 -1.4419525521
C 1.7313285823 2.7755834176 2.6124059492
C 5.1668697717 -0.2767914570 -1.6935444040
C 2.2315092668 2.6888319461 4.0354432179
C 5.1263358725 -0.0745419093 -3.1900870132
C -2.5921404581 -5.9932290432 -0.1289222541
C -2.5565791553 4.4784946085 1.6152283005
C -2.3350200114 0.0133402755 -4.0148234798
H 1.3384990348 0.1993801219 -0.9604592992
H 2.3316099415 -0.9020128664 1.7009735324
H -0.0648831119 0.2920603817 1.7263763250
H 2.5482176382 -3.0156093543 0.4604142732
H 2.0585774374 -2.2324620350 -1.0314119338
H 1.0851869802 2.3960807199 0.2527270140
H 2.7558780032 1.8987223184 -0.0818912250
H 4.4598281975 -1.4235944068 0.5307050761
H 4.2041452865 0.3078123976 0.7473599253
H -2.4972184285 -1.0610303861 1.1925585479
H 0.7202273442 -4.6702272166 0.2233717389
H -1.0986479977 -0.3518628531 -1.8328787378
H -1.2707176897 2.2616569445 1.5663274354
H -3.9956970531 -2.7284390789 1.5226814780
H 1.8453844038 1.7817181631 4.5113627787
H 1.9023418561 3.5662574745 4.5914482783
H 3.3231940955 2.6225808103 4.0472601860
H 4.5246588459 -0.8552647480 -3.6638543763
H 6.1415205968 -0.0892273227 -3.5856830451
H 4.6559479349 0.8864264804 -3.4217054087
H -2.7153685621 -7.0622768152 0.0579758732
H -2.2315237323 -5.8465589797 -1.1559662742
H -3.5539790372 -5.4872558716 -0.0039043406
H -3.9175605664 4.0923666065 -1.5238186753
H -2.8745443561 3.8090086723 2.4248896538
H -1.4659109460 4.5787970848 1.6389556976
H -3.0221942512 5.4553378876 1.7562257399
H -2.6230334972 -0.9152419857 -3.5042692707
H -2.7992534215 0.0390080623 -5.0022154108
H -1.2428498883 0.0315685013 -4.1292798517
