45

C -1.8662167637 -1.5492770253 0.5513718558
C -0.6649284943 -1.1331556057 -0.3134930230
C 1.3122617198 0.1554554057 -0.1196032230
C 1.7631082580 1.4998519059 0.4477113300
C 3.5029477210 -0.7451372684 -0.1419724005
C 3.2084085169 1.7392990415 0.0239404753
C 4.1036940725 0.5602860480 0.4066252936
C 4.2808524878 -1.9741066508 0.2895688402
H 0.0712741919 2.4154124416 0.1857128908
H 3.1789962485 3.6387769799 0.3978657763
H 5.6723320737 1.6306130594 0.0916341028
H 4.3159576226 -3.8595334999 -0.1956732477
O -4.3032167442 1.9544318707 -1.8206648536
C -4.6217707093 1.0266656184 1.5934093644
O 0.9938202586 2.5825323731 -0.0536664997
O 3.7626829856 2.9013617341 0.6268480518
O 5.4050061963 0.7264660682 -0.1309585125
O 3.7929255392 -3.0878472450 -0.4461417016
O 0.0117135665 -0.0976007013 0.3587366306
C -4.0746550866 1.3520559093 -0.7938919243
C -2.5237336028 -2.7938036518 -0.0074505658
O -1.0734386415 -0.6789498759 -1.6226038528
O -4.8829675276 1.5628389546 0.2826374676
O 2.1599567701 -0.8771688203 0.3412777690
C -3.6249575335 -0.0883637694 1.6545464148
C -2.1305420978 0.1657866888 -1.6609404381
C -2.8484651164 -0.3902358779 0.6073571957
C -2.9797028726 0.3712169201 -0.6286407736
C -2.5553380219 -3.9686705852 0.6196901193
H -1.4752501995 -1.7651773842 1.5505020628
H -3.5659240500 -0.6411182411 2.5888471531
H 0.0072848711 -1.9695198229 -0.5137998798
H -2.9936872074 -2.6871712025 -0.9839026931
H -2.2420656029 0.6668125934 -2.6159962066
H -4.3069690393 1.8667244781 2.2318731998
H -5.5953415476 0.6933904987 1.9738663295
H -3.0416526636 -4.8336784096 0.1788819825
H -2.0975141856 -4.1106149648 1.5960277442
H 1.3100066417 0.1894997897 -1.2214830936
H 1.7060345128 1.4383267334 1.5451007913
H 3.5067177312 -0.7039964750 -1.2429320559
H 3.2267515791 1.8366862524 -1.0745281538
H 4.1376291024 0.4964466172 1.5071635049
H 5.3447245755 -1.7823887699 0.0936606013
H 4.1460504650 -2.1100221349 1.3743861513
