10

C 0.7855049831 -0.8448882954 0.1146914134
H 2.1315571253 0.1850937237 -0.9929962774
H 2.1306689195 0.6017649622 0.5660518463
O -0.3662912278 1.1878466881 -0.5678438486
O -1.5877908414 -0.6122539898 0.0304736282
C -0.4200394826 0.0406989305 -0.1822883498
H -2.2971039409 0.0165769816 -0.1873659906
N 2.0769851924 -0.2039638115 -0.0537667841
H 0.6829945780 -1.2235242631 1.1387249397
H 0.7168846945 -1.7270809263 -0.5339605771
