31

C 3.2995654474 -0.7783538502 0.1386695802
C 3.8706154271 0.4393223749 -0.0057461188
C 0.7251542298 -3.6345255664 -0.6913698443
C 0.3221574318 3.6050891136 0.6875363437
C -4.1856393405 1.4581579489 -0.2253074708
C 0.7536741687 -1.3953081509 0.1464095101
C 0.4811457446 1.4483124239 -0.2446333693
O -1.8581357316 -2.7909163138 0.4157533781
O 0.9958261248 -2.7164376368 0.3791637313
O 0.3445858223 2.7880896841 -0.4893355003
C -1.8031503532 -1.5760597533 0.2163770110
C -2.9993917529 0.5580638606 -0.0942586825
C -0.5367893031 -0.8121363118 0.0485812560
C -0.6293880017 0.5969169837 -0.1408092306
O -1.8363757381 1.2466695937 -0.2325323943
C -3.0193317959 -0.7713576734 0.1298480842
C 1.8735324069 -0.5589634086 0.0680995995
C 1.7178401945 0.8265215769 -0.1190194409
O 2.9325555328 1.4420489658 -0.1678131346
H -3.9627488159 -1.2918473194 0.2440113138
H 3.8037683581 -1.7215516410 0.2836468729
H 1.1364938796 -4.5922442925 -0.3668220522
H -0.3491117008 -3.7321290001 -0.8535985938
H 1.2336401715 -3.3140111499 -1.6094018785
H -0.5334933430 3.3528122198 1.3252132060
H 1.2505636326 3.4979511569 1.2609059415
H 0.2263579457 4.6362044259 0.3418203637
H -4.1587022570 2.2444520250 0.5372765282
H -4.1825356511 1.9525431596 -1.2029438556
H -5.1114865891 0.8908038876 -0.1165845963
H 4.8969038555 0.7729826673 -0.0183365574
