19

C 1.4583650470 -1.6793125016 -0.0025545351
C 2.0570581886 1.0528980253 0.0025613215
C 2.7874884039 -1.2588734943 -0.0011864888
C 3.0832005297 0.1064413906 0.0020218925
H -0.7420537895 3.4843117140 -0.0048841376
O -1.2859325411 -2.3975731764 -0.0031469525
O -3.2814549555 -0.4960401381 0.0079808048
O 0.0295899641 2.8996510641 -0.0035367198
C -0.9912773396 -1.2169758083 -0.0008664756
C -0.3835962363 1.6115809140 -0.0011488693
C -2.1123748766 -0.1411937874 0.0029214703
C 0.4220082751 -0.7431420033 -0.0012975512
C 0.7204328889 0.6375655003 0.0003115973
C -1.6944256771 1.2519717156 -0.0003910897
H 1.1953607652 -2.7321266279 -0.0045012792
H 2.2857967508 2.1122736340 0.0047227066
H -2.4841787468 1.9994868116 -0.0013857179
H 3.5898591695 -1.9905623526 -0.0023893696
H 4.1172341798 0.4384191203 0.0039693936
