82

C 0.7096286085 -0.9786085467 -0.4218401072
C -0.7451117189 -0.9603662391 0.2533579857
C 1.6485612750 0.0145366970 0.3604963690
C -1.2945211902 0.5048548026 0.1728670807
C 3.0940333983 -0.0922761898 -0.1672868499
C -2.8217212510 0.7504705630 0.4928174465
C 3.6499953396 -1.5221638158 0.0516633856
C -3.6499360932 -0.2729039888 -0.3377286163
C 1.3130482962 -2.4185549997 -0.3851433142
C 1.0683023752 1.4400869581 0.3620929414
C -0.3611892148 1.4673956859 0.9346861546
C -1.7224104809 -1.8979667678 -0.5009046596
C 4.2080445940 0.8468651030 0.3903710680
C 2.8107404752 -2.5017699097 -0.7751447035
C -3.1867706205 -1.7143875456 -0.0652282894
C 5.1050425888 -1.3425940721 -0.4186421485
C -5.2086150856 -0.1019885836 -0.2709005380
C 0.6403919631 -0.5792991278 -1.9233975066
C -3.1661508886 2.1956195028 -0.0275312036
C -0.6664887499 -1.4779251455 1.7146402178
C 5.5289402629 0.0048128824 0.2283523886
C -3.1484518898 0.7087643409 2.0058797269
C 3.6775099164 -1.9568643600 1.5343307754
C -5.5799493236 1.3967071281 -0.1058679006
C -4.5266389641 2.2988429023 -0.7584931410
C 4.3023307770 2.2446712951 -0.2815198506
C -5.8829532369 -0.9169476529 0.8540328917
C -5.7946801502 -0.5941849481 -1.6159020259
C 5.3386996927 3.1217401707 0.4548426707
C 4.6325348058 2.2043397451 -1.7878462897
H 1.6746344793 -0.3017417261 1.3932102148
H -1.2266846159 0.7730824830 -0.8732059182
H 3.0796875145 0.0585314809 -1.2374338428
H -3.3826363793 -0.0669334368 -1.3720842754
H 0.7461919411 -3.0515948828 -1.0589982636
H 1.2080315296 -2.8389867844 0.6022828796
H 1.0716715910 1.8565324849 -0.6387995974
H 1.6941918163 2.0763312256 0.9766289621
H -0.3228542579 1.2026792592 1.9834576431
H -0.7429237589 2.4800986465 0.8768656168
H -1.4267338166 -2.9297975426 -0.3465851443
H -1.6822233951 -1.7046087859 -1.5641870088
H 4.0270149533 1.0158312729 1.4471534388
H 3.1549447444 -3.5210681879 -0.6192108831
H 2.9394133686 -2.2800477000 -1.8289641241
H -3.7964594616 -2.4074938307 -0.6351221488
H -3.3146813383 -1.9705103443 0.9771325797
H 5.1279136244 -1.2568088785 -1.5008162625
H 5.7484809782 -2.1643658561 -0.1267252782
H 1.6155466220 -0.6517414630 -2.3799362532
H -0.0068691551 -1.2521627263 -2.4677657279
H 0.2872832539 0.4277640175 -2.0823697669
H -2.3937886975 2.5351764794 -0.7077958108
H -3.1681558829 2.8815151864 0.8124083584
H -1.6265880876 -1.4114589847 2.1942360068
H -0.3790625463 -2.5204504353 1.7319209333
H 0.0348553983 -0.9278382955 2.3226823881
H 5.9831048119 -0.1706335046 1.1948746185
H 6.2600049315 0.5154389680 -0.3804742721
H -3.1662428867 -0.2913222577 2.4080001778
H -2.4195497960 1.2834614684 2.5631280920
H -4.1149296323 1.1520305790 2.1952986631
H 2.6895870567 -2.0869515224 1.9513370117
H 4.1954444177 -2.9082592788 1.6115728258
H 4.2051344065 -1.2402202386 2.1501040477
H -5.6651860791 1.6527688585 0.9433660631
H -6.5552581527 1.5684804954 -0.5505297047
H -4.8572530840 3.3324830478 -0.7478056104
H -4.4082279895 2.0178074767 -1.7992188698
H 3.3408328252 2.7289319931 -0.1766273887
H -6.9472669636 -0.7001876595 0.8608839498
H -5.7654259844 -1.9822673423 0.6964043053
H -5.4854400936 -0.6682511084 1.8283087828
H -5.5104323652 -1.6211668322 -1.8154269187
H -6.8785897984 -0.5451678365 -1.5918573364
H -5.4459217639 0.0197123901 -2.4391543036
H 6.3357387726 2.7058820151 0.3621029921
H 5.3530960888 4.1238700479 0.0386717979
H 5.0990428846 3.1983385017 1.5106149101
H 5.6040296418 1.7607129861 -1.9696891127
H 4.6525956449 3.2153369345 -2.1820281519
H 3.8918971750 1.6488332587 -2.3491892423
