98

C -11.5372567496 -0.2786543342 -0.1560949522
C -14.5367370615 -0.1743786523 -0.1532068057
C 14.1790364331 1.1198987407 0.6952906863
C 10.9834344622 2.3995063615 -1.0499505191
C -11.6734222912 -1.9778822160 1.7825662106
C 13.3207590929 -1.7201874908 -0.4537021118
C 11.7609670671 -1.7594275858 1.5126307220
C -12.5513301529 2.0806683287 -0.0444385864
C -11.5544554004 1.2377133231 -2.1818217575
C 8.1875934566 -1.9565882095 -2.0852026739
C -8.0411697625 1.5035255427 1.9870300456
C -2.6998279128 1.4630112155 1.7954202159
C 2.8343894674 -1.9212026495 -1.9583234598
H -16.2568182343 -1.1954553456 -0.0064120105
H 15.5830017068 2.4659576747 1.1700830742
C 13.0636903943 2.1004633146 0.3557280480
C 13.5842183203 -0.0616495101 1.4375394522
C -13.6896464204 0.2390859086 -1.3474213680
O -15.6402508257 -0.9369022953 -0.7046282095
O 15.1394137024 1.7192021851 1.5943806538
C 7.9804727032 -0.8912932596 -1.0282116317
C -7.8534619936 0.5598386019 0.8168014170
C 2.9810920133 -0.8728161670 -0.8740230447
C -2.8567066409 0.4729912228 0.6587773644
C 11.6245947930 0.1236458578 -0.1693563647
C 11.8614748901 1.4260020557 -0.2864630062
C -12.4125153092 -1.0582899254 0.8310658518
C 10.4393551761 -0.5337450538 -0.7856242761
C -10.3196140454 0.2844223349 0.5432468372
C 9.1845650114 -0.2611002367 -0.4592517934
C -9.0726852906 0.0306509224 0.1792607499
C 5.4731027841 -0.9569191542 -1.0155683654
C -5.3462539993 0.5816655835 0.8048857761
C -6.6665603003 0.1833060455 0.3361483336
C 6.7852412262 -0.4910755119 -0.5883639495
C -4.2232129122 0.1220450173 0.2570825239
C 4.3431367584 -0.4787544441 -0.4984653807
C -1.8341536975 -0.0916140964 0.0082946797
C 1.9533773011 -0.2900342820 -0.2481109625
C 0.5337524447 -0.5122745750 -0.4649971042
C -0.4135592637 0.1175465063 0.2307797900
C -13.7300262118 -1.0078433330 0.8077238547
C 12.5710369548 -0.8386142447 0.5738986735
C -12.3332990378 0.8271023112 -0.9184778567
H -11.1959051552 -0.9974087731 -0.8989609847
H 10.6519074747 -1.3009175503 -1.5072981775
H -10.5227368838 0.9215566330 1.3828384267
H -14.2948916355 -1.6018147331 1.5056907851
H 9.0002763892 0.4884997310 0.2893937160
H -8.9015026590 -0.6220298669 -0.6595605482
H 12.7599014399 2.5853604680 1.2794640466
H 13.4335909699 2.8764814980 -0.3098024400
H 14.3776695598 -0.7241879913 1.7616436185
H 13.0945195987 0.3263553195 2.3240178530
H -13.5363381592 -0.6507945577 -1.9471464476
H -14.2356391021 0.9570977032 -1.9484645728
H 5.4316548433 -1.7074738808 -1.7779856660
H -5.2929832177 1.2721451217 1.6213125993
H -14.9277693844 0.7017113588 0.3542492495
H -6.6608711323 -0.4962671059 -0.4989456814
H 6.7651804068 0.2724312743 0.1704226876
H -4.2961457452 -0.5733744532 -0.5611870728
H 4.4065966703 0.2742112796 0.2680381166
H -2.0689337097 -0.7857655030 -0.7804828091
H 2.1827241046 0.4389007838 0.5103405321
H 14.6693133941 0.7902701907 -0.2131340032
H 0.2382657628 -1.2125000104 -1.2225927575
H -0.1161843087 0.8157363683 0.9893576934
H 10.5494241275 3.1262406677 -0.3672811694
H 11.5864290119 2.9503938687 -1.7663198079
H 10.1839601923 1.9061476951 -1.5779763942
H -11.0656227842 -1.4166104445 2.4828095128
H -12.3670107426 -2.5922933253 2.3428979804
H -11.0056438449 -2.6302438587 1.2281647917
H 13.9051711683 -1.1174735777 -1.1374286670
H 13.9878890420 -2.4020927409 0.0635757541
H 12.6265162091 -2.3143774743 -1.0360343269
H 11.0895633209 -2.4000293594 0.9563028293
H 12.4394995357 -2.3856387636 2.0833756854
H 11.1719266005 -1.1696491643 2.2056513378
H -11.6189868053 2.6119179288 0.1035742026
H -13.2429512320 2.7548258194 -0.5394740170
H -12.9559494239 1.8262489299 0.9280237405
H -11.4408429560 0.3926795968 -2.8535985659
H -12.0874009159 2.0212638530 -2.7109103536
H -10.5696818800 1.6066305155 -1.9223470341
H 8.7856212851 -2.7689554416 -1.6846380520
H 7.2560205558 -2.3718208733 -2.4369183988
H 8.7155550168 -1.5422943396 -2.9381267206
H -8.5725965253 1.0029174167 2.7904187197
H -7.1025468413 1.8617979036 2.3803793297
H -8.6292393641 2.3637289903 1.6834918324
H -3.1760869321 2.4044481836 1.5407936067
H -3.1733617858 1.0787433589 2.6932596193
H -1.6648651626 1.6629841150 2.0246959391
H 3.3190850375 -2.8435326508 -1.6542399337
H 1.8013147868 -2.1436444355 -2.1757570981
H 3.3052691386 -1.5805821794 -2.8749912760
