96

C 13.9174203281 -0.1208469479 -0.4814388940
C 14.5596412704 -0.1592109896 0.9353218819
C -13.9146266433 0.1129907421 -0.4936089774
C -14.5614591237 0.1454363314 0.9212029902
C 7.8954364458 -3.2283842401 -0.6889125713
C 13.2011365786 -2.5448985000 -0.8308341649
C 2.5810836300 -2.7053477930 -0.4881979670
C 14.7358812558 2.5397114887 2.5116002274
C 17.1035790478 2.7477564905 1.6346372978
C -2.5822567225 2.7244090128 -0.4807965903
C -7.9004071265 3.2376899113 -0.6838643392
C -13.2047750684 2.5407191102 -0.8319157673
C -14.7278546419 -2.5654356454 2.4770373984
C -17.0961296510 -2.7741877740 1.6014240886
C 7.8135376734 -1.7214883640 -0.5496982946
C 12.7724847404 -1.1089335051 -0.6119353618
C 2.8399635040 -1.2130711587 -0.4342658280
C 15.8331457202 1.9187542660 1.6712881947
C -2.8400246342 1.2317388570 -0.4321633704
C -7.8150050213 1.7305294370 -0.5498146582
C -12.7723746670 1.1049863899 -0.6182018018
C -15.8280304218 -1.9415931099 1.6426663437
C 9.0811015513 -0.9814651978 -0.5041798827
C 6.6692083639 -1.0363018537 -0.4677508113
C 10.3010253437 -1.5046878203 -0.5868085757
C 5.3116790383 -1.5605931041 -0.4855376794
C 11.5144360475 -0.6927709729 -0.5224313834
C 4.2390099344 -0.7735221705 -0.4256563833
C 1.8781315017 -0.2848519696 -0.3981188890
C 0.4398425093 -0.4910773570 -0.3988506842
C 15.7444588326 0.7732635835 1.0191754636
C -0.4392076102 0.5116729928 -0.3978484922
C -1.8772834871 0.3044167708 -0.3985261454
C -4.2385015015 0.7903406452 -0.4258567170
C -5.3126289339 1.5755404636 -0.4839331926
C -6.6690007688 1.0480607335 -0.4691009681
C -9.0807026209 0.9870786848 -0.5078358533
C -10.3019645216 1.5074160608 -0.5888465508
C -11.5132836981 0.6919623935 -0.5287858482
C -15.7435628468 -0.7911081235 0.9987771835
H 8.9844020181 0.0845968609 -0.3913308416
H 6.7366714525 0.0343264291 -0.3768240325
H 8.4543571876 -3.6509455270 0.1398090836
H 6.9216171539 -3.6923296641 -0.7069744992
H 8.4087872910 -3.4908962781 -1.6083960760
H 10.4176436256 -2.5631299584 -0.7018622405
H 5.1859986304 -2.6219131668 -0.5486067189
H 11.3439416993 0.3618541982 -0.3859605092
H 4.3845833838 0.2912396735 -0.3662752919
H 13.5669764201 0.8871692975 -0.6675425087
H 14.6815183878 -0.3433143683 -1.2209941257
H 13.7455376455 -2.6230512366 -1.7680446228
H 13.8692193424 -2.8680814932 -0.0388293557
H 12.3704482462 -3.2336917006 -0.8673813425
H 2.1842625580 0.7468790678 -0.3670552112
H 3.0430944584 -3.1961328529 0.3622306616
H 1.5280161509 -2.9392142183 -0.4783131655
H 3.0092571380 -3.1260539755 -1.3924397563
H 13.7990885763 0.0865642281 1.6621448704
H 14.8923296437 -1.1703222827 1.1469973475
H 0.0711346370 -1.4988344161 -0.4018749632
H 16.6007944068 0.4479531335 0.4514718893
H -0.0709061615 1.5195860616 -0.3981166957
H -2.1826700311 -0.7276547331 -0.3710711472
H 15.0780537538 2.6618424598 3.5356961013
H 14.4943261712 3.5282763898 2.1306328464
H 13.8297485431 1.9528201265 2.5252118915
H 17.8683996820 2.2796874415 1.0276038219
H 16.9002349632 3.7352503726 1.2296458296
H 17.4968768843 2.8816650322 2.6386443204
H -4.3823716236 -0.2748840306 -0.3701208847
H -3.0104189493 3.1484482222 -1.3835301018
H -3.0444154036 3.2118415208 0.3715547114
H -1.5292598264 2.9584798050 -0.4698062076
H -5.1892717723 2.6374128437 -0.5434074707
H -6.7338441377 -0.0230264299 -0.3815123692
H -8.9811856755 -0.0791808644 -0.3991385838
H -8.4179141421 3.5021879287 -1.6004401716
H -8.4567745646 3.6567764661 0.1484006370
H -6.9275254030 3.7031438994 -0.7045671949
H -10.4212361751 2.5660525250 -0.6995724240
H -11.3400537854 -0.3627181844 -0.3965128224
H -13.5604450856 -0.8933231259 -0.6814233856
H -14.6771588398 0.3349886757 -1.2349153873
H -13.7480969521 2.6211569734 -1.7695259625
H -13.8746730673 2.8588360045 -0.0393210150
H -12.3759064490 3.2318152889 -0.8644705333
H -13.8023354124 -0.0995228909 1.6499717757
H -14.8981807415 1.1547398518 1.1347181581
H -16.6013416961 -0.4642108879 0.4342316512
H -15.0667701996 -2.6928344853 3.5015698821
H -14.4862549674 -3.5519259940 2.0907091988
H -13.8222703317 -1.9777157322 2.4906400482
H -17.8633785689 -2.3033281034 0.9996583492
H -16.8904621680 -3.7576081346 1.1876580052
H -17.4875215268 -2.9171438112 2.6049421111
