48

C 0.6538485004 0.5373784780 0.1533373183
C -0.8611691690 0.5379213064 -0.1384212533
C 3.5706849237 -1.0563933772 -0.1536285537
C -3.7851502945 -0.8638756674 0.1632696982
C 3.8408105530 1.0696853158 -1.2580961254
C -4.0160347228 1.2143736686 1.3630700036
C 5.2187487062 1.0231301172 -1.0295626753
C -5.3956243157 1.2063920332 1.1283324506
C 1.5092884400 0.0889727654 -1.0677503258
C -1.6982983410 0.2040100190 1.1209542577
C 4.8676474503 -3.2053837907 1.2387880673
C -5.1274783963 -2.9470328531 -1.2870350142
H 7.2913043351 -0.9351490683 0.3509024032
H -7.5055945121 -0.6563190712 -0.3260846314
C 3.0026604336 0.0408212520 -0.8268545062
C -3.1945416451 0.1902696676 0.8871145962
C 4.9401364318 -1.1046190079 0.0812496807
C -5.1548609401 -0.8762887785 -0.0733600838
C 5.7769739183 -0.0585306661 -0.3600499701
C -5.9729844967 0.1673090619 0.4103242543
O 1.8654200833 2.4580215535 1.1194635538
C -1.0771467466 1.9829913371 -0.6284991015
O 7.1197726047 -0.1139507206 -0.1358073976
O -7.3147165759 0.1499114462 0.1782931236
O 5.6175095193 -2.1168822389 0.7237795210
O -5.8501573772 -1.8450691109 -0.7589830841
C 0.9269572779 1.9978924756 0.5237600450
O -0.0920965982 2.7824872547 0.0576605074
H 0.9157862954 -0.0882473714 1.0124556770
H -1.1173900175 -0.1722739538 -0.9327766237
H 1.1498889912 -0.9071258296 -1.3567039345
H 1.2961486385 0.7502232896 -1.9163839808
H -1.3709235376 -0.7760635942 1.4927263264
H -1.4595212433 0.9281735833 1.9095732921
H -0.9167529864 2.0808171100 -1.7087469324
H -2.0637612711 2.3837160624 -0.3852965746
H 2.9318893127 -1.8690400456 0.1783278276
H -3.1623004296 -1.6747342912 -0.2009965409
H 3.4182169906 1.9266032267 -1.7746951748
H -3.5794363019 2.0293658489 1.9339271487
H 5.8724964856 1.8225145389 -1.3626435804
H -6.0356469470 1.9996878363 1.5004395844
H 4.1264248745 -2.8674617402 1.9741337484
H 4.3559736972 -3.7542800599 0.4378105496
H 5.5851141280 -3.8668760078 1.7271279882
H -4.3745520693 -2.6185606906 -2.0146621529
H -4.6345277662 -3.5203034112 -0.4918245594
H -5.8610358902 -3.5806079022 -1.7878588467
