20

N 1.1984157364 1.8810821718 0.1080573454
C 1.2398933935 0.4625806447 0.4434825134
H 1.1939397101 0.3580622511 1.5347460214
C 0.0260949203 -0.2799286118 -0.1642769952
C -1.2988542375 0.2471811216 0.3888438600
S -2.7048993599 -0.6104202876 -0.4257761362
C -4.0948329036 0.2623575731 0.3752451671
C 2.5313947913 -0.2156120051 -0.0228501069
O 3.3086798338 0.2534078663 -0.8259043750
O 2.7119526456 -1.4286703021 0.5510745787
H 1.9010932152 2.3791266640 0.6505331788
H 1.4902012443 1.9866171825 -0.8631564014
H 0.0481778001 -0.1525194168 -1.2544942110
H 0.1225518624 -1.3516310358 0.0370214382
H -1.3526458989 0.0729256049 1.4703126298
H -1.3710264480 1.3230056733 0.2104184144
H -4.0973603207 0.0966786193 1.4563758011
H -4.0601929306 1.3352821209 0.1666017935
H -5.0151732103 -0.1491730060 -0.0452512146
H 3.5319501566 -1.7924128284 0.1747566985
