50

C -1.9157732774 0.4387803624 -0.1116101515
C -3.0277205126 1.4739212885 0.0838524920
C -2.5652813430 2.8215270594 -0.4575923349
C -1.2292764691 3.2302751668 0.1590448531
C -0.2148946941 2.0970165320 -0.0578334937
C -0.4175435083 -2.0313552802 -0.2982595168
C -1.9946613983 -4.3278021133 -0.0727768932
C 5.4793592255 0.2801927487 0.6613603259
C 3.8442808096 -0.4019693851 -0.9955410089
C -0.6777402853 -4.4275440218 -0.5280578124
C 0.1066078585 -3.2812932608 -0.6375202367
C 6.3804468152 -0.6540313288 0.1566445273
C 4.7501149513 -1.3344326165 -1.4987264188
C 6.0166112464 -1.4627481471 -0.9234184536
C 1.1238406317 2.3871648249 0.5886407512
C -3.9709079108 -2.9548377017 0.7448860406
H -4.5337290115 0.2970179697 -0.2484422834
H -4.3480689868 3.5702407495 -0.5390270997
H -1.4610662704 5.0451199789 -0.4462035492
H -5.4695838343 -4.1313557006 1.1376035461
C -1.7404037075 -1.9459466482 0.1364999627
C -2.5449042415 -3.0897975891 0.2620860794
C 4.2060744715 0.4087931694 0.0898008724
O 3.5786427384 2.1805930780 1.5784504943
O -4.2134788295 1.1310173008 -0.6187821654
O -3.4965203464 3.8576717278 -0.1794011238
O -0.7304170901 4.4091247529 -0.4487728818
O -4.5999603374 -4.2266386172 0.7312470985
C 3.2843562419 1.4252718999 0.6728970863
O -2.3454370329 -0.7477163979 0.4982782295
O 2.0649736021 1.4215376649 0.0813777840
O -0.7270269742 0.8897516067 0.5192956944
H -1.7307499551 0.2643505980 -1.1854677136
H -3.2120061055 1.5615444360 1.1648646638
H -2.4196083935 2.7228932084 -1.5466303394
H -1.3745257494 3.3736646367 1.2424387277
H -0.0639571587 1.9662059644 -1.1415412851
H 1.4527571955 3.3972735614 0.3313352548
H 1.0577166354 2.3023166242 1.6768481659
H -3.9740774784 -2.5151860183 1.7553658221
H -4.5054904582 -2.2411799180 0.0930603233
H 0.1997130699 -1.1415729904 -0.3285491973
H -2.6179016619 -5.2094966546 0.0213295827
H 5.7394657913 0.9199046979 1.4980281608
H 2.8619672240 -0.2929846139 -1.4406806051
H -0.2674527062 -5.3990252158 -0.7875213762
H 1.1377990248 -3.3511296050 -0.9718080177
H 7.3657286032 -0.7525219303 0.6029805389
H 4.4688082060 -1.9596458147 -2.3411832666
H 6.7202013860 -2.1910600388 -1.3170698531
