15

C -1.0703374982 0.0656520844 -0.0011250527
O -2.1246799012 0.9534152950 -0.0119737763
C 0.1874744028 0.6548410041 0.1390494756
O 0.3537295495 2.0145255964 0.2564758577
C 1.3370694588 -0.1421784014 0.1641546705
O 2.5634855841 0.4369355405 0.3009580232
C 1.2229046720 -1.5298150659 0.0479982769
C -0.0386730118 -2.1073658451 -0.0917023703
C -1.1928485279 -1.3191134021 -0.1175988379
H -2.9534549944 0.4694028847 -0.1150509329
H -0.5232922189 2.4236495050 0.2202525685
H 2.4277324310 1.3947957343 0.3645967722
H 2.1251442322 -2.1312287277 0.0693193464
H -0.1272525189 -3.1854397717 -0.1823087215
H -2.1758016590 -1.7710764304 -0.2255452996
