13

N -1.5678439806 1.0692127198 0.4187560295
C -0.7747313566 -0.1562608866 0.4226762117
H -0.7380802957 -0.5592188641 1.4420458654
C -1.2755439690 -1.2723977920 -0.5234824745
C 0.6474947544 0.2077745915 0.0220434255
O 0.9476116894 1.1241819935 -0.7118927527
O 1.5567782601 -0.6551343198 0.5300571639
H -1.3488767930 1.5956748497 -0.4246026002
H -2.5586621058 0.8427346064 0.3955600044
H -1.2818600616 -0.9196289555 -1.5605013309
H -0.6463059308 -2.1662908553 -0.4611991871
H -2.2974272363 -1.5567480217 -0.2506831140
H 2.4207470253 -0.3780690660 0.1792727592
