22

C 2.2254379240 0.5341816356 0.4753398881
H -4.9160755753 0.6786370025 1.6355867204
H -2.7283164743 1.0419123689 0.8455075913
H 3.1584252464 0.1531004173 0.0516223605
H 2.2089491047 1.6184541542 0.3209769247
H -5.9828923941 -0.1546525048 0.5681916519
H -3.4346823149 -1.5617969466 -1.4416610879
H -1.4770659780 -1.3976980516 -0.1246363043
H -1.5074804506 -0.1100263229 -1.3551772309
H -0.3894220874 1.4467748475 0.2550722865
H -0.3532261624 0.1655547636 1.4731839529
H -5.0087847087 -1.8707665064 -0.8056944848
H 1.0363120016 0.0386316894 -1.2628936554
N -5.0381681269 0.0809679368 0.8321847799
N -4.1576367119 -1.3299164353 -0.7783694516
C -3.9852501093 -0.3487592721 0.1170980215
C -1.5181931629 -0.3127237737 -0.2759776403
C -0.3175581892 0.3589488620 0.3934403920
C 1.0167766412 -0.1408869732 -0.1799976415
H 2.2498043462 0.3481004831 1.5544078280
H 1.0829510256 -1.2282544131 -0.0437915488
N -2.7804038439 0.1870670391 0.3067866478
