9

C -0.1798320193 0.2647890233 -0.3611140168
H -0.1388955278 -0.0478868066 -1.4091020344
C 0.7709079615 -0.5615084233 0.5020323948
S 2.5069426975 -0.3177761578 -0.0894144590
H 0.7080662999 -0.2507723533 1.5484271854
H 0.5215365435 -1.6241929732 0.4398529196
H 3.1043145355 -1.1207704397 0.8151309912
H -1.2093276270 0.1381082654 -0.0099758337
H 0.0650271362 1.3303898651 -0.3130871472
