15

C 1.1379651548 0.5264250211 0.4704295056
H 1.1489161765 0.6532292602 1.5596890975
C -0.1125158082 -0.2221168145 0.0022922641
C -1.4094140172 0.5070223693 0.3601692099
C -2.6535490036 -0.2002669340 -0.1784931813
N -3.8320869790 0.1800529172 0.4077836297
O -2.6139559787 -1.0402007551 -1.0659445616
H -0.0862607025 -0.3721506561 -1.0816368726
H -0.1347109580 -1.2269571315 0.4408512172
H -1.4987738307 0.6327030070 1.4479688777
H -1.3973120065 1.5235419697 -0.0611609450
H -3.8831084223 0.9393036898 1.0675997351
H -4.6894588034 -0.1797704924 0.0159472399
H 2.0480294046 -0.0152615136 0.1927083578
H 1.1979857742 1.5253760631 0.0217964261
