13

C 1.1757362608 0.4808045402 0.4292928094
H 1.2411086575 0.7130922194 1.5012792278
C -0.1329528684 -0.2413361326 0.0866919727
C -1.4021527736 0.5453692894 0.4172922675
C -2.7286708193 -0.1159600033 -0.1317779639
O -2.5839197138 -0.8544257958 -1.1415619466
O -3.7732422674 0.2004285378 0.4880860893
H -0.1794353346 -0.4891775302 -0.9792854657
H -0.1610118921 -1.2085104994 0.6099780637
H -1.5070325230 0.7022987272 1.4998391874
H -1.3280927503 1.5519153575 -0.0287984747
H 2.0617146528 -0.1169449081 0.1695306611
H 1.2558813711 1.4353261981 -0.1088964279
