15

C 1.1017482839 0.0442692228 0.4143603400
H 0.8858325835 -0.6565891957 1.2255912538
C 0.1694663145 -0.2207719264 -0.7788928071
C -1.2845830735 -0.1472667883 -0.4136553667
C -2.2487610668 0.7143586384 -0.8806850873
N -3.4118675924 0.3667945973 -0.2192867799
C -3.1037940649 -0.6748457317 0.6083864307
N -1.8358382196 -1.0096503940 0.5184675588
H 0.3748944396 0.4948989351 -1.5841743486
H 0.3844379047 -1.2180197198 -1.1851168541
H -2.2168281600 1.5163139656 -1.6024312638
H -4.3157028727 0.7994708187 -0.3314755972
H -3.8409149074 -1.1443113620 1.2461627402
H 2.1522281998 -0.0714168824 0.1266608154
H 0.9638722311 1.0593158226 0.8022689656
