16

C 1.1217675957 0.0085402866 0.4191143095
H 0.9831154864 -0.7529119079 1.1943101145
C 0.1866649930 -0.2148484153 -0.7846734854
C -1.2683455974 -0.1289930607 -0.4418756724
C -2.2621460869 0.6997765649 -0.8878961274
N -3.4260496116 0.3418157737 -0.2283008609
C -3.1810632963 -0.6713353187 0.6036610086
N -1.8823669944 -0.9666234227 0.4862746660
H 0.3851178675 0.5312768386 -1.5594439493
H 0.3870418050 -1.1923973519 -1.2415162493
H -2.2354497249 1.4998830604 -1.6103909262
H -4.3326031480 0.7773550992 -0.3512224582
H -3.8954704701 -1.1596763444 1.2487371622
H 2.1617854756 -0.0492184364 0.0903125076
H 0.9599811352 0.9905472785 0.8715229720
H -1.4157094288 -1.6984706438 1.0091169890
