20

C 1.4220262454 0.3426261303 0.4811996678
H 1.4346814486 0.1275484373 1.5551378490
C 0.1884662030 -0.2628772862 -0.1947985186
C -1.1267803691 0.2797383936 0.3834066652
C -2.3644125557 -0.3330090403 -0.2971996696
C -3.6527779251 0.2228436079 0.2941817638
N -4.8777772173 -0.3971768761 -0.3896137392
H 0.2199828116 -0.0589788728 -1.2732287248
H 0.2066456504 -1.3554732598 -0.0857527345
H -1.1651503553 0.0748678367 1.4615458699
H -1.1529757504 1.3719405109 0.2707791545
H -2.3304297985 -0.1227506934 -1.3751232594
H -2.3429766969 -1.4252591386 -0.1777665344
H -3.7583504325 -0.0047207321 1.3574963885
H -3.7472340341 1.3020077165 0.1520738121
H -4.8834111037 -1.4167770309 -0.2725137761
H -5.7591114241 -0.0329706573 -0.0109731588
H 2.3404051633 -0.0651970555 0.0501379674
H 1.4511415970 1.4306033667 0.3567228002
H -4.8672814563 -0.2079153569 -1.3981718228
