9

C 0.2881756861 0.1433466464 -0.4396417287
H 0.3626903249 -0.2285876779 -1.4659671079
C 1.2325327277 -0.6216168971 0.4729933905
O 2.5601378599 -0.4167161737 -0.0012743319
H 1.1210154345 -0.2636164682 1.5100368450
H 0.9698000662 -1.6923711031 0.4701794144
H 3.1612079418 -0.9042988570 0.5761540030
H -0.7478008194 0.0331131154 -0.1026731072
H 0.5421207781 1.2077174151 -0.4427573772
