22

C 2.0112970420 0.0653833417 0.4189197327
H 2.0878780185 -0.6303059077 1.2609282901
C 1.2193466383 -0.5658639153 -0.7407784792
C -0.1987231091 -0.9170951872 -0.3861840858
C -0.6932297538 -2.1640417688 -0.0976090573
N -2.0420930371 -2.0861116669 0.2074671147
C -2.4515132969 -0.7722153462 0.1123375738
C -3.7110372010 -0.1944252472 0.3066567077
C -3.8221332932 1.1798596880 0.1272980854
C -2.7067118965 1.9614719329 -0.2379020317
C -1.4581994334 1.3828787162 -0.4302206479
C -1.3113469832 -0.0047363039 -0.2565403646
H 1.2195590872 0.1269960203 -1.5932070052
H 1.7405032166 -1.4672042750 -1.0867408652
H -0.1841073643 -3.1182848226 -0.0854064655
H -2.6332926952 -2.8682311657 0.4349322882
H -4.5721053273 -0.7963150815 0.5850561321
H -4.7867360956 1.6591574649 0.2682400335
H -2.8295936804 3.0325388559 -0.3712895764
H -0.6066771270 1.9954679572 -0.7144835030
H 3.0258286562 0.3328875760 0.1030819643
H 1.5201076353 0.9722791349 0.7861941596
