14

H -2.8105028820 0.0493617533 1.0736356643
H -2.6718210445 1.3510139972 -0.1176520145
H -0.2248852507 0.2613531554 1.5273413758
C -2.5905463915 0.2670747423 0.0208154383
H -0.1454361221 1.5520465314 0.3191649306
C -0.1042251986 0.4655340560 0.4559639658
H -3.3700949389 -0.2077481250 -0.5855661173
C -1.1937635873 -0.2430245731 -0.3613122883
H -1.2600723600 -2.0616022816 0.8408245362
H 0.8969537522 0.1288308996 0.1644765288
C -1.1000840330 -1.7675425624 -0.2041531701
H -1.0262979640 -0.0041022250 -1.4221297002
H -1.8550859837 -2.2789612205 -0.8117786996
H -0.1158279954 -2.1413441475 -0.5076004496
