30

C 2.5219805607 -1.5557949506 0.1128279222
C 3.7195022815 0.5376014306 0.1250003664
C -2.4260065073 -1.6212964847 0.0922021627
C -3.6826952624 0.4641719006 0.0886286133
C 5.0505584352 -1.6058835464 0.1066492455
H 1.6329741171 2.9145916395 0.1188821432
H -1.6402534494 2.8726892077 0.1004213964
H -5.5551776380 -1.1054707894 0.0791923983
C 2.5056729439 1.2500771344 0.1195569871
C 3.7437333457 -0.8524184279 0.1196722032
C -2.4861414362 1.1960531437 0.0946680988
C -3.6511142686 -0.9277959757 0.0875993094
O -0.0050731076 2.5318311479 0.1081793851
O 0.0585930041 -2.8924345732 0.1023266062
O 2.5679318029 2.5873849697 0.1235306788
O -2.5719157528 2.5301907640 0.0956879624
O -4.7783012516 -1.6817667380 0.0822879022
C 0.0078486735 1.2622542520 0.1064573260
C 0.0468704179 -1.6667760392 0.1030258851
C 1.2775564859 0.5420475514 0.1110622523
C 1.3132457579 -0.8764235811 0.1084805362
C -1.2380906689 0.5142693124 0.0996085269
C -1.2421437527 -0.9057181983 0.0981248202
H 2.5014929376 -2.6408211045 0.1117773403
H 4.6391724102 1.1147756025 0.1332044398
H -2.4056473088 -2.7044138974 0.0914668856
H 5.2017069638 -2.1042165114 -0.8586994446
H 5.9008439609 -0.9411010408 0.2779776986
H 5.0630167800 -2.3864470827 0.8749081229
H -4.6204404745 1.0127408846 0.0850922293
