53

C 3.9145126001 -0.3169946397 0.1605970436
C 5.2801669314 -0.9607678132 0.4200725544
C 6.2929974926 0.1263271432 0.7710435612
C 6.2932907052 1.2526543141 -0.2630821891
C 4.8583579307 1.7706715340 -0.4300515699
C -4.6035075035 2.1683010612 0.3465099193
C -6.9841966635 1.5752177620 0.3774374568
C -0.4757924479 -2.1966330729 -0.1867028679
C -0.3190696450 0.2247843327 -0.1671333538
C 1.0702102386 0.1459112789 -0.2409444738
C 4.7122604928 2.8691677297 -1.4647039739
H -4.0857253579 -3.5771920661 -0.2856600281
H 4.6381607538 -2.5757221584 1.3025228758
H 7.6106514456 -1.0952530709 1.4960348234
H -7.2073806756 -1.5700246758 0.0525456266
H 7.9642198990 1.9158199294 0.4278202063
H 2.4512637422 -3.3550454310 -0.4452443608
H -7.1758460573 3.9790530081 0.6481140287
H 3.2589368241 4.0342262561 -2.0486846282
C -6.6691961514 0.2296234062 0.2228650730
C -1.1106058355 -0.9390992417 -0.1328142905
C 1.6837459109 -1.1042438672 -0.2601172360
C 0.9086668468 -2.2773737176 -0.2530699977
C -5.9517772955 2.5269095289 0.4388576501
O -5.7428420953 -2.5019568841 -0.1018252340
O -3.2073051415 -3.1405898939 -0.2694407354
O 5.2568539354 -1.8645002949 1.5167148463
O 7.6173963569 -0.3837468595 0.8398685492
O -7.6452686024 -0.6867701348 0.1631684742
O 7.1261210958 2.3192086876 0.1567121955
O 1.5057850921 -3.5038642187 -0.2982068297
O -6.2193215173 3.8508592867 0.5915127384
O 3.4046858085 3.4112622541 -1.3261114144
O 3.0520739672 -1.3279246391 -0.3056482846
C -3.5066672212 -1.8275823030 -0.1160290296
C -2.5707584819 -0.8281935615 -0.0523166477
C -4.9282429349 -1.5403512909 -0.0301337477
C -5.3047071547 -0.1676777956 0.1277576672
C -4.3026089854 0.8194209944 0.1915779899
O -2.9905896980 0.4738647876 0.1036205674
O 4.0280488997 0.6732970052 -0.8370741971
H 3.5064951088 0.1165203795 1.0895990466
H 5.5928707192 -1.4618341649 -0.5084858675
H 6.0015069899 0.5608298393 1.7419869808
H 6.6340425636 0.8410158038 -1.2276299735
H 4.5073024031 2.1692884973 0.5353395978
H -3.8247964097 2.9184338609 0.3963488085
H -8.0272507685 1.8687475366 0.4494034964
H -1.0451268431 -3.1151314245 -0.1727119877
H -0.7912299791 1.1982814731 -0.1507855091
H 1.6683828527 1.0463017487 -0.3233960896
H 5.4915162547 3.6205356002 -1.2780954590
H 4.8734896047 2.4370381807 -2.4639318017
