78

C 2.0072319593 -0.7898663484 -0.4136666604
C 0.5292788027 -0.7105502953 -0.0104463307
C 2.7977382654 0.3668721858 0.2530155087
C -0.1755953220 0.6378701747 -0.3320964746
C 4.3133876468 0.3778375071 -0.1573607690
C -1.6192924988 0.3136843287 0.1814846708
C -2.8062854730 1.2235961271 -0.2318772615
C 7.0819228515 -0.2880940167 0.9332438622
C -6.5036390294 -0.1031993441 0.2905062676
C -7.6162982031 0.9063021363 -0.0925037709
C -0.2007645328 0.9476974208 -1.8464028742
C 4.5130411436 0.9369689588 -1.5902720300
C -2.6259030441 2.7020074162 0.1718906512
C -5.7715088017 -2.5541654728 0.3155248200
C -8.2254675774 -2.0261963952 0.4025475280
C -7.3531982306 2.3423381279 0.3732631955
H 8.7947051132 -1.2217003007 0.9205548740
C 2.6160179531 -2.1411702721 -0.0059600356
C -0.4420785084 -1.7833851365 -0.5266194713
C 2.0976270449 1.7329366104 0.0667412103
C 0.5994178736 1.7286034166 0.4352220625
C -1.8437728257 -1.1701157570 -0.2590047746
C 5.0960219935 1.2655375517 0.8606724634
C 6.3980274604 -1.1697755242 -0.1229924984
C 6.6252205749 1.1568355784 0.7741857295
O 8.5021787061 -0.3079003819 0.8032378941
C -6.8585223686 -1.5627895992 -0.1301633598
C -4.0968191912 0.7100098748 0.3709223958
C -5.1852690979 0.3339353505 -0.3071026616
C 4.1177116355 -2.1375947825 -0.0099867855
C 4.8874150469 -1.0450820382 -0.0940067091
H 2.0902441369 -0.6993499855 -1.5059603099
H 0.5169547535 -0.7849775361 1.0906249472
H 2.7832795371 0.1470028687 1.3332895359
H 2.2560360932 -2.4176966164 0.9992150305
H 2.2491421201 -2.9353767147 -0.6699853563
H -0.2877831597 -1.9633083013 -1.5977076846
H -0.3073129835 -2.7465186205 -0.0244332298
H 2.6032571212 2.4925368164 0.6736121645
H 2.1983126944 2.0644642097 -0.9720345131
H 4.6023200529 -3.1122982438 0.0580699267
H -1.5665817581 0.3392010436 1.2811663783
H 0.1901830174 2.7271455594 0.2482533833
H 0.4890952155 1.5458435353 1.5139376785
H -0.7864784218 0.2128140835 -2.4072874017
H -0.6469156780 1.9302581330 -2.0324762571
H 0.8009992861 0.9607326994 -2.2825688462
H -2.3879145459 -1.7239882601 0.5114132301
H -2.4694332980 -1.2071110871 -1.1575947152
H 4.8052143194 2.3138710491 0.7305237257
H 4.7843596453 0.9795597720 1.8746705179
H 4.2536680769 1.9987325643 -1.6425509945
H 5.5516722801 0.8436022573 -1.9181787393
H 3.8965513549 0.3976500187 -2.3161835743
H -2.9098858844 1.1792839392 -1.3247599196
H 6.7983369520 -0.8632317045 -1.0997561910
H 6.6825505831 -2.2205961913 0.0187711198
H 7.0911082087 1.7743991861 1.5504242171
H 6.9982170499 1.5312325781 -0.1873186967
H -4.1249760271 0.6864900579 1.4637473355
H -2.4521417556 2.7990065325 1.2501355864
H -1.7842506191 3.1691381903 -0.3458374901
H -3.5267480724 3.2742500432 -0.0716276036
H 6.7848013477 -0.6437480788 1.9356467184
H -5.1565707559 0.3630542774 -1.4003964078
H -6.4034051081 -0.0917677735 1.3877237943
H -6.9018865796 -1.5820817579 -1.2306986199
H -7.7478788730 0.8912455793 -1.1843053787
H -8.5679766621 0.5726049324 0.3337089214
H -5.7018783643 -2.5865012647 1.4106835966
H -6.0036042232 -3.5676061792 -0.0296558530
H -4.7867900449 -2.2795023449 -0.0700532924
H -9.0605489952 -1.4665566182 -0.0272916247
H -8.3889742375 -3.0837760625 0.1673566578
H -8.2767752423 -1.9221374945 1.4940053181
H -8.1887059142 2.9976868301 0.1049809021
H -7.2326603253 2.3864813594 1.4622788162
H -6.4430556838 2.7527956182 -0.0736274692
