78

C 7.4891042525 -0.3200423211 -2.8737372933
C 6.6214284201 0.5026788201 -1.9130452784
C 6.4057759783 -0.1388226136 -0.5217825915
H 6.1592568624 -1.1991669668 -0.6934652107
C 5.1980420597 0.4997048167 0.2054903734
C 3.8332963850 0.0335622858 -0.3306128292
C 2.6012645269 0.5949965195 0.4231058681
H 2.7553114103 0.3928563251 1.4941544672
C 2.5042904121 2.1184681492 0.2354062396
C 1.3184681552 -0.1556900427 -0.0217728883
H 1.2225851605 0.0018812206 -1.1078900878
C 1.4052888855 -1.6989011327 0.2347919466
C -0.0388951566 -2.2044006176 0.5036522898
C -0.9166697380 -0.9938798859 0.1534865621
H -0.9482421356 -0.9450641462 -0.9483185757
C -2.3799289984 -0.9634280234 0.6206075711
H -2.3904546522 -0.9045459663 1.7178904315
C -3.1370668918 -2.2425958911 0.2199614090
C -4.6457619770 -2.1663392016 0.5478720575
C -5.1997999385 -0.9188029899 -0.0875777104
C -6.0545788042 -0.9959094004 -1.1299328790
C -6.4027184379 0.1409528999 -2.0016257701
C -5.6143738248 1.4179837561 -1.7512926317
C -5.3196447862 1.5936764916 -0.2599303751
C -4.5923823117 0.3946174207 0.4046093385
C -4.8134933559 0.5449560933 1.9329387229
C -3.0574936768 0.3177016942 0.0450015831
H -3.0098121322 0.2159087589 -1.0507351423
C -2.2469533408 1.5792566781 0.4114418339
C -0.7584745288 1.4854973108 0.0111828585
C -0.0692813999 0.2357377516 0.5975060265
C 0.0483102098 0.3520788553 2.1339015596
O -7.2140701773 0.0379448810 -2.9119396440
C 7.7038958583 -0.1304923766 0.3395350111
C 8.0673873884 1.2552328039 0.9002800381
C 7.6522486193 -1.1701193678 1.4717419457
H 8.5041545248 -0.4717431187 -2.4921672368
H 7.0512645119 -1.3099822244 -3.0478763767
H 7.5788191762 0.1781075528 -3.8450847837
H 7.0571651608 1.5033006720 -1.7884921032
H 5.6453226607 0.6634266215 -2.3867698937
H 5.2397032884 0.2565006658 1.2754364866
H 5.2835715299 1.5912490934 0.1398869741
H 3.7338791539 0.2904274030 -1.3949208672
H 3.8187837013 -1.0613446300 -0.2821797779
H 2.2550235059 2.3718599773 -0.8025212539
H 1.7435330071 2.5659092969 0.8788611522
H 3.4512432254 2.6104443596 0.4757120786
H 1.8508207839 -2.2125578009 -0.6219012312
H 2.0561089878 -1.9090665479 1.0917382455
H -0.2862366835 -3.0875070572 -0.0931462700
H -0.1674826520 -2.4891228061 1.5550515123
H -3.0248786030 -2.4063359530 -0.8611495644
H -2.6950458091 -3.1125862859 0.7189426236
H -5.1616512305 -3.0533531044 0.1662238670
H -4.7828932731 -2.1550300845 1.6365627649
H -6.4694388456 -1.9554641509 -1.4324728676
H -4.6837108172 1.3478499392 -2.3327000582
H -6.1774158554 2.2634448868 -2.1570319879
H -4.7596225180 2.5169447303 -0.0834353090
H -6.2783383187 1.7224065069 0.2591891950
H -5.8726111096 0.4076221308 2.1753479076
H -4.2405316237 -0.1682350609 2.5288934107
H -4.5300656994 1.5509688429 2.2578333835
H -2.6756661235 2.4572035687 -0.0834576037
H -2.3233544733 1.7739972155 1.4880468399
H -0.6862235039 1.4447210520 -1.0851765436
H -0.2569886423 2.4083867451 0.3186520132
H -0.9240726877 0.4601165629 2.6211049914
H 0.5367424571 -0.5208931050 2.5772648154
H 0.6428830828 1.2292946885 2.4079361616
H 8.5238475589 -0.4361048130 -0.3247475524
H 8.1213739159 2.0199782646 0.1184580564
H 7.3382008397 1.5910088468 1.6461304054
H 9.0449525893 1.2229061927 1.3939293051
H 7.4585595812 -2.1755668744 1.0812587784
H 8.6029400917 -1.2003590586 2.0157895831
H 6.8681768151 -0.9412157287 2.2031815035
