17

N -0.5485581658 1.6680606873 -0.1738907382
C -0.1616370504 0.4244762890 0.4959056275
H -0.1769792380 0.4969807981 1.5944679661
C -1.1335799882 -0.7084582432 0.0517765352
H -0.7187546790 -1.6721953558 0.3636622089
O -1.1785023471 -0.7215163458 -1.3633999708
C -2.5261168100 -0.5282044262 0.6605383399
C 1.2732034943 0.0881579862 0.1078855230
O 1.9934890072 0.7963936651 -0.5633057058
O 1.6788138721 -1.0920726557 0.6206365001
H 0.2855289034 2.1287051175 -0.5308866950
H -1.0243954137 2.3015943663 0.4581644201
H -1.2713668500 0.2195033731 -1.6027311021
H -2.9481696543 0.4450493485 0.3857705023
H -3.1947854563 -1.3043726966 0.2784544073
H -2.5014953992 -0.6003845987 1.7545156615
H 2.5923157749 -1.2251373090 0.3153265198
