24

C 1.3156656439 0.9600893888 0.4711690312
C 1.2552463195 -1.4322671575 0.2724857953
C 2.6824876601 0.9481649789 0.1966854922
C 2.6203504376 -1.4603936524 -0.0014975228
C -0.9118470832 -0.2362127312 0.7942497373
H -1.9821709186 2.0592096583 -1.4071452550
H -2.2550732930 2.1871179594 0.1842801681
H 5.0494113141 0.5545458154 -0.3155803216
C 0.5754787667 -0.2292676571 0.5132159319
C 3.3407369282 -0.2632133941 -0.0413489372
O -4.1332188819 0.6172515485 0.1506072312
O -3.4115002564 -1.4472189067 -0.3930975569
O 4.6799604129 -0.3383649102 -0.3137022005
C -3.2309047061 -0.1215128103 -0.1818553980
H -4.3502527457 -1.6291034700 -0.2139344287
C -1.7752488774 0.3070280120 -0.3820552696
N -1.6363215866 1.7534270028 -0.5004206884
H -1.4176574728 -0.1644923826 -1.3042688611
H -1.2309835072 -1.2590455164 1.0184153468
H -1.1442802336 0.3714170862 1.6788162045
H 0.8093884895 1.9050872235 0.6350966948
H 0.7059150542 -2.3706442012 0.3036073782
H 3.2396250067 1.8831879411 0.1678332859
H 3.1409135292 -2.3951998252 -0.1831158578
