22

C 1.9870159569 0.0536626313 0.4406146753
H 2.0516214836 -0.6809932576 1.2499277619
C 1.2192081629 -0.5504010215 -0.7653993849
C -0.1959806840 -0.9217415638 -0.4065775510
C -0.6746874231 -2.1731996881 -0.1016978191
N -2.0358785611 -2.0958774280 0.2186783349
C -2.4513170937 -0.7779669865 0.1189171085
C -3.7016774601 -0.1849919583 0.3224227187
C -3.8111785467 1.1888567157 0.1326762089
C -2.6978043935 1.9641947508 -0.2545142617
C -1.4535474713 1.3775832631 -0.4575014809
C -1.3131633260 -0.0069387343 -0.2714636801
H 1.2087783133 0.1760736238 -1.5890004622
H 1.7531853460 -1.4377502747 -1.1284521678
H -0.1564309423 -3.1183845485 -0.0877566782
H -2.6209571965 -2.8807981818 0.4704074348
H -4.5624499655 -0.7747715193 0.6169918459
H -4.7701273760 1.6719096686 0.2826005369
H -2.8195371227 3.0321248592 -0.3956958476
H -0.6026100967 1.9791963542 -0.7578105601
H 3.0021932996 0.3488769405 0.1497106808
H 1.4623650969 0.9354263553 0.8236725872
