80

C -0.3933432496 -1.3423217593 0.0336693409
C -0.0791382954 0.0795147762 -0.4521780520
C -1.8133025381 -1.7311972306 -0.3937762500
C -1.1881952229 1.0682482594 -0.0295807020
C -2.8070800603 -0.6455972824 0.0260021781
C 0.8817643471 -3.3794525736 0.2244920122
C 1.6966204900 -4.3014327005 -0.7062135342
C 3.0861692301 -3.6917651184 -0.9144193424
C 3.7567064026 -3.4309353689 0.4332317872
C 2.8685310612 -2.5143378512 1.2847416099
C -7.9766743750 1.2108087463 -0.9565689647
C 6.4744679361 3.2006690195 -0.8700107604
C -8.4352950999 -0.3131703888 0.8559187144
C 6.1091444820 1.9528148579 1.1732899304
C -9.5384507410 0.4612076538 1.2303032068
C 7.3630798027 2.3463475538 1.6316682278
C -0.9884448839 2.4805409172 -0.5573170000
C -5.1456814219 -0.2107717870 -0.0074897148
C -6.4291773204 -0.7624386218 -0.6276261795
C 3.4102343647 -2.3040137547 2.6888065139
H -3.0961936496 -3.1129032454 -0.0182506244
H 0.9866383286 -5.9148732001 0.1226710239
H 3.6600524157 -4.5927101856 -2.5579731131
H 5.4474673689 -3.2743871183 -0.4616915430
H -1.9036773793 4.1833810050 -0.3319418557
H -10.1749343803 3.4966139600 -0.9003342925
H 9.3344551526 4.5604634321 -0.7070994390
H -11.4211780910 2.0970425344 1.5330715261
H 9.6625994210 3.2518100683 2.0666796214
C -7.6452893173 0.0513023193 -0.2386576639
C 5.6427196298 2.3784713661 -0.0837670282
C -9.0719785699 1.9874261667 -0.5931216879
C 7.7243273243 3.6011264869 -0.4164855459
C -9.8562217842 1.6062565052 0.5103603109
C 8.1689175261 3.1688719313 0.8460007907
O 1.8458174215 1.3529281400 -1.8646480644
O -2.1615776338 -2.9754633763 0.1968593753
O 1.8598294540 -5.5887102058 -0.1331722654
O 3.9791518776 -4.5275646683 -1.6486703376
O 5.0076093852 -2.7809175490 0.2465898650
O -1.9504172609 3.3114478817 0.0792486303
O -9.3851160709 3.1068191443 -1.3053319408
O 8.5091373821 4.4015091058 -1.1898500879
O -10.9187106654 2.4406430518 0.7837970554
O 9.4170538820 3.6130004259 1.2053864911
C 2.0822136761 1.0813275966 -0.7016007468
O 0.5780127546 -2.2172628391 -0.5393452922
O 1.1783533378 0.4724810145 0.1270548821
O -4.0544833099 -1.0256979796 -0.4606317039
C 3.3336476245 1.3655100973 0.0171624515
C 4.3354668928 2.0083301548 -0.6156671082
O -2.4348027844 0.5975986139 -0.5388534065
O 1.5536503237 -3.0904543558 1.4243150071
H -0.3174687854 -1.3764530908 1.1286800549
H 0.0179633434 0.0841707837 -1.5409821618
H -1.8428218985 -1.7912463794 -1.4926107411
H -1.2246856084 1.1173539124 1.0716278922
H -2.8297771418 -0.5580563383 1.1304856875
H -0.0459727780 -3.8722557105 0.5343275574
H 1.1633449573 -4.3579114836 -1.6697045056
H 2.9579243485 -2.7253661013 -1.4229294912
H 3.8841329943 -4.3938577083 0.9489295391
H 2.7852791043 -1.5501937504 0.7687602667
H 0.0352152594 2.8078854645 -0.3331320561
H -1.1093317312 2.4680006124 -1.6500218339
H -4.9785666702 0.8289438990 -0.3088908876
H -5.2007062181 -0.2412165351 1.0915165682
H 3.4713150026 -3.2574759912 3.2235931869
H 4.4120626796 -1.8704093101 2.6345343456
H 2.7567158506 -1.6326091171 3.2536939661
H 3.3909307199 1.0462739149 1.0519330418
H -6.3057924155 -0.7708265324 -1.7164601820
H -6.5521899060 -1.8048231377 -0.3121295475
H 4.1409587758 2.2959892192 -1.6480076670
H -7.3881218560 1.5218088254 -1.8148498164
H 6.1479410173 3.5409730700 -1.8479550476
H -8.1972189001 -1.2106052165 1.4199455586
H 5.5020018424 1.2993244170 1.7898408419
H -10.1523724210 0.1699144939 2.0801847549
H 7.7222652450 2.0087341639 2.6014743707
