51

C 7.7257394956 -0.6283914059 0.3047187937
C -4.6362167225 2.1799340370 -0.4049567277
C -3.9605133177 1.2969099435 1.8420970246
C -2.8856613129 -2.3736445171 -1.1463575323
C 0.3088333840 1.8718475010 -1.4711378874
C 5.6136386494 1.3132807653 -0.9419811021
H 9.2202879775 -0.9832680429 1.5090137772
C -5.8915462600 0.2595423389 0.5666834309
C -5.0628716098 -2.0392386541 0.0742297080
C -5.8484101965 -1.1824925503 1.0660783062
O 8.2608946011 -0.9133935630 1.5987353371
C 0.3146571409 0.6097094464 -0.6428782608
C 5.2946771884 0.0685982951 -0.1447155773
C -3.4846466349 -0.0900772305 -0.2106826699
C -3.7725700570 -1.4020162486 -0.4026374379
C -2.1892485663 0.5047196884 -0.5998015421
C -0.9671787966 0.0179948941 -0.2820765299
C 1.4569689806 -0.0009649653 -0.2110571158
C 2.8209523422 0.4004111400 -0.4447263639
C 3.8900271586 -0.2771702426 0.0459868501
C 6.2357393831 -0.7434823196 0.3894045107
C -4.4864409628 0.8938316015 0.4431443149
H -2.2354551631 1.4465451112 -1.1421093737
H -6.3759010065 0.2730153860 -0.4201600924
H -6.5070161575 0.8860457811 1.2248731534
H -4.8812816489 1.9460279704 -1.4471155355
H -5.4485336815 2.7946046370 -0.0002749273
H -3.7314211829 2.7945507382 -0.3940343904
H -2.9521173334 1.7166551145 1.7730035828
H -4.6129897888 2.0514923424 2.2980053006
H -3.9114941818 0.4371599190 2.5176906100
H -4.8287000416 -3.0188910496 0.5154861193
H -5.6893900719 -2.2656022213 -0.8042163252
H -2.4307700243 -3.1036757968 -0.4625474937
H -3.4906742072 -2.9558134493 -1.8546806187
H -2.0825411555 -1.8836131595 -1.6969749619
H -0.9139427869 -0.8921870640 0.3138222530
H -5.3719176149 -1.2278582210 2.0535294762
H -6.8627331035 -1.5790632729 1.1927272620
H 1.3357965342 -0.9052125670 0.3867442376
H -0.2398988612 2.6709583807 -0.9578384932
H 1.3124840578 2.2433170713 -1.6807868980
H -0.1952117595 1.7079415692 -2.4313905345
H 2.9961311448 1.2878480777 -1.0462645797
H 3.7009029628 -1.1701669466 0.6422813048
H 5.9054773195 -1.6198151434 0.9463659381
H 5.0872060076 2.1820413839 -0.5308662767
H 6.6800095377 1.5427791232 -0.9509617136
H 5.2891420327 1.2049418236 -1.9839645693
H 8.0387619854 0.3663155144 -0.0444112082
H 8.1022663239 -1.3587809637 -0.4351145520
