32

O          0.14980        1.02930       -0.13980 
C         -0.60590       -0.06350       -0.66390 
C         -0.10350       -1.35690       -0.00950 
C          1.34760       -1.58190       -0.44180 
C          2.13440       -0.30850       -0.26140 
C          3.51700       -0.37780       -0.23400 
C          4.26960        0.76960       -0.07380 
C          3.64230        1.99430        0.05990 
C          2.26450        2.06920        0.03490 
C          1.50350        0.91590       -0.12540 
O          1.92670       -2.61590        0.35660 
O         -0.16890       -1.23400        1.41270 
C         -2.06640        0.13140       -0.34750 
C         -3.02990       -0.28110       -1.24880 
C         -4.36950       -0.10240       -0.95860 
C         -4.74570        0.48850        0.23310 
C         -3.78220        0.90020        1.13490 
C         -2.44270        0.71750        0.84660 
H         -0.46810       -0.12080       -1.74360 
H         -0.71820       -2.19610       -0.33500 
H          1.37180       -1.87780       -1.49060 
H          4.00940       -1.33330       -0.33800 
H          5.34770        0.70980       -0.05270 
H          4.23010        2.89170        0.18420 
H          1.77550        3.02640        0.14040 
H          2.84780       -2.81270        0.13760 
H          0.13490       -2.01850        1.88960 
H         -2.73590       -0.74280       -2.17990 
H         -5.12230       -0.42400       -1.66320 
H         -5.79230        0.62880        0.45950 
H         -4.07610        1.36210        2.06580 
H         -1.68990        1.03910        1.55110 
