13

C 1.1847484836 0.4929323043 0.3625386195
H 1.3296060401 0.7870686000 1.4118414888
C -0.1443783840 -0.2719136572 0.1764651559
C -1.4044029703 0.5354722703 0.5220892908
C -2.6936786927 -0.0784995941 -0.2086709297
O -2.4389494828 -0.7590991270 -1.2601634982
O -3.8063317606 0.2145460822 0.3242251544
H -0.3063147959 -0.5796440551 -0.8645041326
H -0.1214055052 -1.1928131132 0.7781544478
H -1.6061534683 0.5866304073 1.5983943631
H -1.2855532826 1.5704770068 0.1577487254
H 2.0515389030 -0.1121999317 0.0561856930
H 1.1792049156 1.4099228073 -0.2426343781
