31

O          0.34180        0.80470       -0.20730 
C         -0.47490       -0.29500       -0.61180 
C         -0.05580       -1.53110        0.19430 
C          1.38200       -1.89020       -0.18930 
C          2.24290       -0.65320       -0.14660 
C          3.61860       -0.80030       -0.09260 
C          4.43790        0.31140       -0.05580 
C          3.88470        1.57820       -0.07300 
C          2.51400        1.73110       -0.12520 
C          1.68600        0.61390       -0.16150 
O         -0.12310       -1.24020        1.59180 
C         -1.92310        0.02120       -0.34000 
C         -2.90370       -0.43550       -1.20060 
C         -4.23200       -0.14540       -0.95120 
C         -4.57980        0.60100        0.15910 
C         -3.59930        1.05700        1.02020 
C         -2.27130        0.76320        0.77320 
H         -0.33370       -0.48540       -1.67580 
H         -0.71780       -2.36460       -0.04030 
H          1.77130       -2.62750        0.51270 
H          1.39530       -2.30670       -1.19650 
H          4.05320       -1.78890       -0.07870 
H          5.51030        0.19090       -0.01330 
H          4.52460        2.44780       -0.04520 
H          2.08290        2.72120       -0.13760 
H          0.12970       -1.98060        2.16020 
H         -2.63190       -1.01870       -2.06800 
H         -4.99810       -0.50170       -1.62400 
H         -5.61760        0.82830        0.35350 
H         -3.87100        1.64050        1.88750 
H         -1.50530        1.11950        1.44600 
