39

C          2.29640        1.83980        0.68340 
C          1.84160        0.81940       -1.43430 
C         -3.65670        1.13570        1.06460 
C          2.88980        2.90990        0.04030 
C          2.43510        1.88950       -2.07730 
C         -4.34330       -0.74680       -0.87010 
C         -4.96650        1.00030        0.65820 
C          2.95900        2.93490       -1.34010 
C         -5.30640        0.06230       -0.30540 
C          1.81060       -1.67010        0.21600 
C          4.10740       -2.88240        0.47740 
H         -0.25760       -2.73520       -1.89160 
C          1.77210        0.79460       -0.05390 
O         -0.90190        1.24120        1.75030 
O          3.62520       -0.78120        1.42690 
O          0.12600       -2.13380       -1.23860 
C          3.21500       -1.70180        0.76180 
C         -0.33580       -0.43010        0.28200 
C         -1.25880        0.43440        0.90730 
C         -0.77240       -1.31510       -0.65170 
C         -2.67460        0.32350        0.50100 
C         -3.01710       -0.62570       -0.47370 
C          1.12510       -0.37200        0.64720 
O         -2.05840       -1.40790       -1.01270 
H          1.22550       -0.24890        1.72560 
H          1.84260       -1.71990       -0.87240 
H          1.25130       -2.52210        0.60250 
H          2.24640        1.81820        1.76200 
H          1.43200        0.00280       -2.01030 
H         -3.39240        1.86940        1.81170 
H          3.29910        3.72670        0.61640 
H          2.48970        1.90860       -3.15580 
H          4.66390       -2.70390       -0.44260 
H          4.80520       -3.01770        1.30370 
H          3.49850       -3.77950        0.36550 
H         -4.61940       -1.47400       -1.61930 
H         -5.73150        1.62720        1.09180 
H          3.42200        3.77130       -1.84250 
H         -6.33600       -0.03540       -0.61650 
