17

N -0.5590427496 1.6597222546 -0.1799157354
C -0.1663581640 0.4378398721 0.5550654011
H -0.1718704403 0.5370538405 1.6490388494
C -1.1095950078 -0.7148447971 0.0979928025
H -0.6731692743 -1.6679383309 0.4007154675
O -1.1105460546 -0.6672499565 -1.3514527836
C -2.5240482520 -0.5478375162 0.6674118680
C 1.2423823393 0.0982767325 0.1018090133
O 1.9517163011 0.7946860916 -0.6177407396
O 1.6411473868 -1.1109532426 0.6150396940
H 0.2663132417 2.0972231182 -0.6024234455
H -1.1089801323 2.3178890101 0.3716584501
H -1.1588062060 0.3329488812 -1.5069782236
H -2.9216883502 0.4366449592 0.3945751363
H -3.1767331324 -1.3108316758 0.2332422665
H -2.5314262996 -0.6487333598 1.7594672800
H 2.5497147941 -1.3273158811 0.2653846988
