21

C          1.39760       -1.69760        0.00010 
C          2.12490        0.99270       -0.00010 
C          2.73470       -1.33110       -0.00030 
C          3.09530        0.00260       -0.00040 
C         -3.50390       -0.39240       -0.00080 
O         -1.35360       -2.24760        0.00080 
O          0.02600        2.85400        0.00040 
C         -1.02030       -1.07930        0.00020 
C         -0.27500        1.67700        0.00000 
C         -2.04430       -0.01740       -0.00010 
C          0.41330       -0.71650        0.00030 
C          0.78040        0.64110        0.00020 
C         -1.69460        1.27590       -0.00020 
H          1.12200       -2.74180       -0.00430 
H          2.41280        2.03360        0.00020 
H          3.49970       -2.09350       -0.00010 
H         -2.46260        2.03520       -0.00000 
H          4.14020        0.27570       -0.00100 
H         -3.85620       -0.48300        1.02670 
H         -4.07700        0.37920       -0.51470 
H         -3.63400       -1.34480       -0.51480 
