24

O 2.61742810 1.80570060 0.35469960
C 2.17314900 0.49003030 0.70591550
C 1.02344970 0.14156660 -0.24349250
O 1.39602350 0.40852770 -1.57603520
C 0.54910890 -1.33681950 -0.19662720
H 0.59022680 -1.73378710 -1.21768030
O 1.36442840 -2.11264810 0.67584040
C -0.91589040 -1.24516890 0.24069310
H -0.95477790 -1.31846480 1.33831300
O -1.65529690 -2.30106330 -0.36394470
C -1.29862050 0.18113150 -0.19032220
H -1.49583750 0.20771360 -1.27224790
O -0.11662450 0.92381860 0.13123830
C -2.48592040 0.76309310 0.55028170
O -2.92339420 1.94207450 -0.11727310
H 3.50756480 1.94184130 0.69912420
H 2.96925820 -0.24835850 0.56899340
H 1.82010980 0.45690580 1.74219840
H 1.79069510 1.29659440 -1.57558780
H 1.12905830 -3.04227600 0.55781660
H -2.54011220 -2.34075580 0.02135760
H -3.29489610 0.01226450 0.56783350
H -2.18362240 0.97312730 1.58595130
H -3.48950750 2.45385230 0.47345420
