24

H -0.94110380 2.38956750 -0.33165250
C -0.65490360 1.45366950 0.16947810
C -1.60582600 0.30666260 -0.23895590
H -1.72199630 0.30736590 -1.33002320
O -2.88710910 0.45000580 0.40125690
C -1.04293070 -1.04055330 0.20433480
H -1.04485060 -1.08379790 1.30262750
O -1.80122960 -2.13091970 -0.32286690
C 0.39637190 -1.21575890 -0.27603830
H 0.39748320 -1.24664060 -1.37819400
O 0.95677130 -2.41424790 0.24714090
C 1.24463110 -0.02434760 0.19569310
H 1.28530060 -0.01114090 1.29125360
O 0.64515180 1.19624310 -0.28237440
C 2.66091670 -0.07892090 -0.34882530
O 3.45727490 0.86400250 0.36606830
O -0.66200760 1.62940570 1.57343250
H -3.44851570 1.04195320 -0.11653770
H -2.69750950 -2.07437370 0.03653810
H 0.32351150 -3.12662420 0.07490850
H 3.03996280 -1.10003850 -0.21383740
H 2.63643420 0.15557550 -1.42376030
H 4.35179420 0.85452860 0.00397190
H -1.56428170 1.45418430 1.88473170
