24

O 3.91341510 1.09858380 -0.56452380
C 2.50737130 1.05158230 -0.46250860
C 2.06690880 -0.35315220 -0.09381990
O 2.83124750 -1.19054590 0.34798880
C 0.59611080 -0.73085340 -0.31510710
H 0.42615320 -0.76739170 -1.40275560
O 0.35224340 -1.99811320 0.26936900
C -0.40577530 0.27222030 0.29339920
H -0.14517010 1.29100510 -0.01596330
O -0.32670500 0.23743760 1.71088020
C -1.83594770 -0.00429940 -0.20004890
H -2.11577030 -1.03612540 0.06084460
O -1.81595040 0.15497230 -1.61835470
C -2.84961830 0.95096470 0.42238730
O -4.10148370 0.66051770 -0.21658460
H 4.18792110 2.01766010 -0.67454550
H 2.12609820 1.71501160 0.33196450
H 2.01095650 1.34534640 -1.40153850
H 1.23002160 -2.37115560 0.47811320
H -0.27098260 -0.70115380 1.95771070
H -2.73934770 0.17027100 -1.91252050
H -2.90803990 0.79110660 1.50448440
H -2.54819130 1.99017680 0.22442160
H -4.76566520 1.30273430 0.06150760
