24

O -4.20263960 0.43556220 0.04010640
C -3.17641210 0.34180500 -0.60554260
C -1.99022850 -0.45352900 -0.10407830
H -1.84782230 -1.30172690 -0.79474960
O -2.22967600 -0.91476570 1.21433920
C -0.69139520 0.37959320 -0.11377870
H -0.61372870 0.92529970 -1.06225930
O -0.73295980 1.35233690 0.91932800
C 0.55161550 -0.53526730 0.01845180
H 0.48117770 -1.07565410 0.97053370
O 0.55691770 -1.51676240 -1.01478230
C 1.85217260 0.27955810 -0.01366220
H 1.73633320 1.16823760 0.61987450
O 2.03664780 0.67736740 -1.37883660
C 3.05530570 -0.52815350 0.46425880
O 4.21051280 0.28131570 0.20481330
H -3.07346370 0.81817010 -1.60004850
H -3.16829330 -0.73609560 1.40678010
H -1.11806340 0.91272570 1.69577100
H 0.99802520 -1.10440100 -1.77684010
H 2.95196350 0.98501810 -1.46315380
H 2.95611400 -0.73658320 1.53865450
H 3.11357710 -1.47774780 -0.08317590
H 5.01032000 -0.24790330 0.31159660
