23

C -1.03013050 -1.18460820 0.40293540
C 0.47839750 -1.12194280 0.12006590
C -1.74570970 0.04087060 -0.15874030
C 1.02265390 0.25263130 0.56318920
C -1.08785780 1.30771510 0.38894580
H -2.48331200 -2.35030310 -0.17701610
H 0.22114540 -2.05022720 -1.55951520
H -3.59745240 0.67944430 -0.14815410
H -1.26361320 3.21261750 0.06361700
O 2.92443900 1.32409240 -0.53433950
O -1.51531180 -2.38881740 -0.18251770
O 0.75211360 -1.29701380 -1.25857560
O -3.11363100 -0.06963950 0.22737430
O -1.72327060 2.40227620 -0.19890840
O 3.24949300 -0.52334490 0.72661150
C 2.48307310 0.44211920 0.15742720
H 4.16249500 -0.37774620 0.42585520
O 0.28556030 1.33493100 0.02433680
H -1.18784570 -1.20965220 1.49329650
H 0.98375480 -1.89646770 0.71460100
H -1.64472730 0.06394470 -1.25148840
H 0.99057880 0.27758000 1.66687870
H -1.17474230 1.34314070 1.49162040
