80

C          0.10100        0.22280       -0.21290 
C         -4.13260        0.54340        0.21460 
C         -0.74120       -1.02690       -0.58470 
C         -2.78830        0.33590       -0.46230 
C         -2.08190       -0.90020        0.11190 
C          1.49180       -0.18080       -0.71620 
C          2.57740        0.65610       -0.03650 
C          6.41710        0.48950       -0.20590 
C          3.95570        0.13840       -0.45240 
C          5.03870        0.89230        0.32200 
C          7.48760        1.37430        0.43610 
C          0.11870        0.42880        1.30310 
C         -3.89600        1.29420        1.52660 
C          2.43320        2.11930       -0.45970 
C          6.03730       -1.30830        1.48700 
C          6.10310       -1.87630       -0.94510 
C          8.87200        0.92000       -0.03070 
H         -7.63450       -1.22790       -1.10050 
C         -0.53570        1.40640       -0.91990 
C         -2.94280       -2.12970       -0.19900 
C         -1.93640        1.59360       -0.31670 
C          0.14520       -2.19010       -0.15250 
C         -5.03170        1.41890       -0.66320 
C          1.59800       -1.67010       -0.28900 
C         -6.25290       -0.65210        1.08880 
C         -6.38610        1.60490        0.02380 
O         -7.20200       -0.36320       -1.11640 
C         -7.08090        0.24990        0.16870 
C          6.68910       -0.97500        0.14350 
C         -4.32200       -1.91870        0.35450 
C         -4.84220       -0.73960        0.53100 
H         -1.93930       -0.80310        1.18810 
H          1.55220       -0.08540       -1.80040 
H         -0.88950       -1.06240       -1.66390 
H          6.44270        0.61560       -1.28830 
H         -2.96210        0.15970       -1.52390 
H          2.47150        0.57870        1.04560 
H         -4.90950       -2.78570        0.61790 
H          0.06230        2.30280       -0.75560 
H         -0.61530        1.20240       -1.98760 
H         -3.00100       -2.27000       -1.27840 
H         -2.49700       -3.01200        0.26020 
H         -2.43390        2.42030       -0.82380 
H         -1.83800        1.83540        0.74150 
H         -0.06370       -2.45990        0.88270 
H         -0.01190       -3.04800       -0.80630 
H         -4.56150        2.39130       -0.80930 
H         -5.17740        0.93630       -1.62960 
H          2.12970       -2.24070       -1.05040 
H          2.11500       -1.74890        0.66740 
H         -6.22530       -0.22690        2.09200 
H         -6.69640       -1.64720        1.12340 
H          4.02570       -0.92670       -0.23120 
H          4.09620        0.29740       -1.52150 
H          4.96820        0.64340        1.38090 
H          4.89870        1.96530        0.19090 
H          0.55510       -0.44680        1.78370 
H          0.71410        1.30960        1.54320 
H         -0.90060        0.57020        1.66250 
H         -6.23510        2.04250        1.01060 
H         -7.00840        2.26940       -0.57550 
H         -8.07260        0.39410        0.59740 
H         -3.43030        2.25680        1.31550 
H         -4.84920        1.45440        2.03050 
H         -3.24000        0.70620        2.16850 
H          7.76460       -1.13880        0.21090 
H          7.32680        2.41120        0.14110 
H          7.42470        1.29130        1.52120 
H          3.28990        2.68820       -0.09840 
H          2.38890        2.18030       -1.54710 
H          1.51800        2.53190       -0.03510 
H          4.95340       -1.24540        1.39060 
H          6.31740       -2.31840        1.78610 
H          6.37670       -0.59870        2.24150 
H          6.56060       -1.63240       -1.90390 
H          6.30510       -2.91930       -0.70100 
H          5.02620       -1.71940       -1.00600 
H          9.00050       -0.13960        0.19070 
H          8.96400        1.08040       -1.10490 
H          9.63780        1.49530        0.48950 
