25 

C          4.22890       -0.52730        0.32790 
C          2.86060        0.09890        0.24810 
C          1.78220       -0.67000        0.18450 
C          0.44040       -0.05590        0.10620 
C         -0.69560       -0.86390        0.03910 
C         -1.94910       -0.28460       -0.03350 
O         -3.05810       -1.06910       -0.09850 
C         -2.85380       -2.48340       -0.08750 
C         -2.07590        1.10240       -0.03960 
O         -3.30900        1.67060       -0.11050 
C         -0.94680        1.90510        0.02710 
C          0.30610        1.33320        0.10510 
O          5.11240        0.14180       -0.57410 
H          4.61110       -0.43700        1.34480 
H          4.16260       -1.58100        0.05700 
H          2.75820        1.17410        0.24280 
H          1.88460       -1.74510        0.18980 
H         -0.59580       -1.93920        0.04350 
H         -3.81720       -2.99010       -0.14390 
H         -2.24250       -2.76890       -0.94360 
H         -2.34590       -2.77000        0.83330 
H         -3.71690        1.83410        0.75080 
H         -1.04900        2.98030        0.02180 
H          1.18370        1.96060        0.15690 
H          6.01330       -0.20960       -0.57570 
