24

O 0.7281032369 1.3475501259 -1.3232430038
O -0.6612221031 -0.9176730888 -1.6081150751
O 1.6699778206 -1.1308638790 1.1883609037
O -1.9426626561 1.3996464979 0.9778032710
O 4.1585027013 -0.4247782659 0.5351506188
O -3.9926164747 -0.2626553017 0.7391265081
C 0.5591497217 0.5389041774 -0.0921566575
C -0.6939939572 -0.3143397824 -0.2844401402
C 1.7993763131 -0.3298251515 -0.0177447150
C -1.9597405214 0.5726301113 -0.2006137269
C 3.0871999956 0.4909597576 0.0916746655
C -3.1744163242 -0.3260160169 -0.1861351056
H 0.4545200424 1.1527351765 0.8050411257
H -0.6982425299 -1.1022913355 0.4707379321
H 1.8282331979 -0.9541367159 -0.9248546130
H -1.9780251738 1.1778988579 -1.1215675755
H 2.9911786696 1.2159855754 0.9028323907
H 3.3133270199 1.0047906347 -0.8461249845
H 0.2369942786 2.2029190157 -1.1996863162
H -0.2280105871 -0.1935225523 -2.1559336819
H -3.2343844261 -1.0350568596 -1.0216598238
H 2.6242609139 -1.3334781882 1.4251331321
H -2.7576594266 1.1129596755 1.4935114057
H 4.4216502688 -0.9761424681 -0.2526965345
