35
 
P 3.74169 -1.10727 -0.25786
O 3.39386 -2.29805 0.54896
O 4.79552 -0.09280 0.42941
O 4.41861 -1.41574 -1.68807
O 2.56759 -0.10822 -0.68480
C 1.74381 0.49357 0.34145
C 0.76620 1.44006 -0.32158
H 1.31104 2.09960 -1.01172
C 0.01017 2.30909 0.69691
H -0.09120 1.79618 1.65280
C -1.38363 2.48325 0.04457
H -2.18966 2.51184 0.78782
C -1.50925 1.25875 -0.88828
H -1.87778 1.62039 -1.85452
O -0.22050 0.69688 -1.04427
N -2.45865 0.21621 -0.46918
C -2.34915 -0.37327 0.83704
O -1.50145 0.06467 1.60922
N -3.20795 -1.38623 1.14963
C -4.09290 -1.81652 0.26854
N -4.93317 -2.80830 0.67007
C -4.21538 -1.27291 -1.05420
C -3.36288 -0.26282 -1.36782
O -1.39772 3.64332 -0.76864
O 0.69300 3.55903 0.83340
H 5.37017 -0.57349 1.04237
H 4.13517 -2.28613 -2.00297
H 1.20005 -0.28096 0.89025
H 2.38344 1.06421 1.02482
H -4.72502 -3.24821 1.55426
H -5.47738 -3.32276 -0.00247
H -4.94218 -1.63847 -1.76867
H -3.36304 0.21365 -2.34299
H -0.65980 4.19075 -0.44630
H 0.51195 3.90433 1.71721