36
 
C -2.68246 -1.21837 -0.06307
C 4.68273 2.25726 -1.64748
H -0.77037 -4.61057 -0.64400
H 3.46174 0.24962 2.29917
O -3.85704 1.38103 -1.20756
O 5.09530 1.73696 1.17080
O 1.47962 -1.02835 1.55733
C 0.76884 -2.31701 -1.05440
O -0.93531 -3.85146 -0.07030
O -1.73101 2.00116 0.23975
O -3.94783 2.17389 1.28729
O -3.06619 -0.11554 0.77306
C -1.18800 -1.46828 0.01369
C 0.75932 -0.77965 -1.14357
C -0.71002 -2.66863 -0.81040
C 3.80349 1.37552 -0.80919
C 4.14688 1.21565 0.60628
C 2.16124 -0.30807 0.84480
H -1.05935 1.34343 -0.03514
H -4.86448 2.33435 1.02199
O -0.47637 -0.34855 -0.57091
C 2.71726 0.72620 -1.28179
P -3.19552 1.36828 0.11816
N 1.90687 -0.10651 -0.51841
N 3.26563 0.37731 1.31295
H -3.19547 -2.10452 0.32188
H -3.00307 -1.03721 -1.09528
H -0.86953 -1.59125 1.05372
H 0.77008 -0.43937 -2.18340
H 1.18448 -2.76457 -1.96153
H 1.34156 -2.64867 -0.18762
H -1.25870 -2.69156 -1.76653
H 2.41432 0.81914 -2.31985
H 4.67401 3.28634 -1.27323
H 5.72234 1.91704 -1.60067
H 4.36200 2.26295 -2.69273