51

C         -3.14510       -1.39810       -0.35990 
C          3.03810        0.56380        2.50350 
C         -6.68270       -2.04670        0.82670 
H          4.08970       -3.24140       -0.73920 
H          5.20970       -0.14690       -2.79680 
H          6.01970       -0.43910        0.46500 
H          1.81700        0.73160        4.11030 
O         -1.91700        3.75360        1.18240 
O         -4.66190       -3.25130        0.69610 
O          4.38070       -2.31940       -0.72090 
O          5.25360        0.08450       -1.85890 
O          5.14790       -0.47550        0.88170 
O          1.77080        0.54130        3.16340 
C         -5.22340       -2.20260        0.48440 
O          1.16530       -0.59580       -1.06810 
O         -4.54750       -1.17650       -0.05580 
C         -0.13130       -0.67240       -0.47230 
C          2.12690       -1.47600       -0.48270 
C          3.43580       -1.40060       -1.27310 
C          3.99480        0.02290       -1.18550 
C          4.18320        0.39580        0.28820 
C          2.84540        0.25100        1.01830 
C         -2.55610       -0.14520       -0.95520 
C         -1.79120        3.04780        0.19940 
O         -2.41870        3.24940       -0.98470 
O         -0.05940       -0.10730        0.84810 
O          2.36650       -1.08740        0.87140 
C         -3.22030        0.96930       -1.16110 
C         -0.50470        1.13020        1.11050 
C         -1.12410        0.00370       -1.39600 
C         -2.33050        2.03620       -1.76280 
C         -0.97080        1.90260        0.12830 
C         -0.89650        1.53840       -1.35640 
H         -0.05250        1.92320       -1.92880 
H         -1.00850       -0.36370       -2.41570 
H         -2.46570        2.18830       -2.83360 
H         -0.40690       -1.72320       -0.38320 
H         -4.26640        1.10680       -0.93050 
H         -0.48570        1.50360        2.12370 
H          1.74640       -2.49720       -0.50590 
H          3.24680       -1.65510       -2.31600 
H          3.29700        0.71800       -1.65250 
H         -2.61040       -1.65140        0.55560 
H         -3.05290       -2.21730       -1.07300 
H          4.52950        1.42670        0.36170 
H          2.12130        0.94500        0.59140 
H          3.48650        1.55140        2.61160 
H          3.69370       -0.18370        2.95020 
H         -7.29000       -2.33580       -0.03100 
H         -6.92680       -2.68460        1.67620 
H         -6.88690       -1.00700        1.08250
