24

O -1.92007570 0.95319730 -0.64674750
H -1.30885040 0.19334950 -0.68778740
H -2.08426820 1.09148410 0.31710630
O 2.04367390 2.05339520 1.74066700
H 1.61386380 1.27617350 2.14269940
H 1.38477570 2.77041000 1.79691280
O -0.47586550 3.06337370 -1.23848110
H -0.80223590 3.56820880 -1.99350040
H -1.09512300 2.27752320 -1.10632310
O 1.83242330 1.34818000 -0.92902060
H 2.09039670 1.64376500 -0.02271690
H 1.20556800 2.02748750 -1.24219980
O -0.22311590 3.80834360 1.39844850
H -0.32642590 3.72858640 0.41975190
H -0.33564270 4.73889040 1.62748300
O 0.38304490 -0.77309130 -0.39246660
H 0.64436630 -1.56536440 -0.87771760
H 0.99545420 -0.02373210 -0.67862200
O 0.40102190 -0.27688320 2.31456260
H 0.40790030 -0.64089950 1.39697770
H 0.55535850 -1.01184250 2.92054680
O -1.86125610 1.49946260 2.06925420
H -1.18378680 0.86591280 2.37092350
H -1.41258140 2.36459910 2.04563960
