53 

C          3.91130       -0.31310        0.56460 
C          5.34830       -0.75690        0.85100 
C          6.27150        0.46430        0.79900 
C          6.13300        1.13740       -0.56990 
C          4.66570        1.50810       -0.80150 
C         -4.88810        1.72570        1.47590 
C         -7.05320        1.32380        0.49000 
C         -0.52710       -2.06240        0.26400 
C         -0.09790        0.31570        0.15570 
C          1.25260        0.07590        0.29540 
C          4.50910        2.12670       -2.19200 
H         -3.10980       -2.64800       -2.27670 
H          4.85000       -2.12870        2.25500 
H          7.78390       -0.39240        1.83830 
H         -7.70930       -1.13570       -0.81910 
H          7.87850        2.15880       -0.46430 
H          1.50430       -3.99100       -0.31730 
H         -6.76240        3.86210        1.77950 
H          2.99220        2.98310       -3.22490 
C         -6.51740        0.33810       -0.31730 
C         -0.99890       -0.75220        0.13900 
C          1.72050       -1.22450        0.41890 
C          0.82750       -2.29480        0.40320 
C         -6.24060        2.01360        1.38380 
O         -5.20420       -1.63860       -1.87180 
O         -2.52420       -2.18180       -1.66450 
O          5.41480       -1.35100        2.14900 
O          7.62500        0.04880        0.99270 
O         -7.30890       -0.33690       -1.18890 
O          6.93520        2.31950       -0.60420 
O          1.28980       -3.56790        0.52540 
O         -6.77760        2.97890        2.17300 
O          3.16430        2.57860       -2.36360 
O          3.05260       -1.45520        0.55600 
C         -3.14890       -1.23260       -0.91560 
C         -2.44370       -0.49800       -0.01030 
C         -4.54010       -1.00030       -1.07080 
C         -5.15080        0.04120       -0.22930 
C         -4.33160        0.74080        0.67380 
O         -3.01630        0.44950        0.75180 
O          3.85860        0.33240       -0.70920 
H          3.58440        0.38170        1.33820 
H          5.66170       -1.48280        0.10070 
H          5.99030        1.16760        1.58280 
H          6.46260        0.45070       -1.34960 
H          4.34880        2.22680       -0.04580 
H         -4.26620        2.27190        2.16970 
H         -8.10560        1.55800        0.42770 
H         -1.22040       -2.89040        0.25600 
H         -0.45940        1.32890        0.05970 
H          1.94800        0.90210        0.30850 
H          5.19160        2.97060       -2.29320 
H          4.74070        1.37900       -2.95050 
