63

C          0.14650       -1.09770        0.01260 
C         -1.32850       -0.91510       -0.30190 
C          1.04610        0.05050       -0.44500 
C         -1.78200        0.41080        0.30330 
C         -2.12800       -2.05990        0.34380 
C          0.51990        1.37970        0.09550 
C         -0.96420        1.57840       -0.22740 
C          3.02050       -1.41110       -0.03170 
C         -1.59930       -0.98140       -1.80590 
C          1.20450        0.13280       -1.95890 
C         -3.56820        1.80700        1.31020 
C         -3.83400        1.09190       -1.04200 
C          3.95130       -1.37280       -1.25660 
C          2.21330        4.74780       -0.29700 
H          1.21660       -1.29370        1.74180 
H         -2.37450       -2.82190        2.20120 
H         -0.62600        2.55540       -1.95910 
O          0.16580       -3.10490       -1.30760 
O          0.93610        3.64290        1.34600 
C          2.16110       -2.66710       -0.10590 
C         -3.62270       -1.83340        0.10890 
C         -4.05540       -0.55530        0.81750 
O          0.30190       -1.17640        1.45090 
O         -1.89230       -2.11590        1.74940 
O         -1.14350        1.81410       -1.61600 
C          1.43190        3.57930        0.24600 
O          1.28670        2.46770       -0.49230 
C          0.74640       -2.36120       -0.55830 
C          3.93160       -1.57040        1.18480 
O          2.33950       -0.18880        0.11360 
C         -3.27270        0.66020        0.31170 
C          3.95730       -0.64310        2.10980 
H         -1.49700        0.34100        1.39210 
H         -1.82960       -3.00270       -0.11510 
H         -1.12690       -1.87160       -2.22120 
H         -2.67440       -1.02590       -1.97990 
H         -1.18950       -0.09400       -2.28830 
H          0.65640        1.40180        1.18070 
H          0.26410        0.45550       -2.40560 
H          1.98800        0.84980       -2.20380 
H          1.47470       -0.84820       -2.34970 
H          2.61250       -3.37730       -0.80760 
H          2.12380       -3.14300        0.88030 
H         -1.27710        2.49720        0.30250 
H         -3.86160       -1.79400       -0.94580 
H         -4.17200       -2.68000        0.54620 
H         -5.12200       -0.38730        0.64310 
H         -3.89410       -0.65990        1.89330 
H         -3.04030        2.70740        0.99590 
H         -4.64020        2.00310        1.33140 
H         -3.23200        1.51760        2.30580 
H         -3.70650        0.28400       -1.76250 
H         -4.89430        1.32280       -0.93880 
H         -3.30170        1.97690       -1.39050 
H          4.55430       -2.44740        1.28200 
H          4.68290       -0.57450       -1.13220 
H          4.46810       -2.32790       -1.35030 
H          3.36210       -1.18890       -2.15500 
H          1.54150        5.41430       -0.83790 
H          2.67660        5.28970        0.52750 
H          2.98710        4.38460       -0.97340 
H          4.60110       -0.75570        2.96960 
H          3.33450        0.23390        2.01270 
