78

C          1.81040       -0.81750        0.03570 
C          0.47240       -0.81480        0.75300 
C          2.67040        0.29340        0.65390 
C         -0.20920        0.54690        0.45250 
C          4.02250        0.36590       -0.03570 
C         -1.64980        0.32430        0.90210 
C         -2.60800        1.14540        0.03710 
C          6.91290       -0.28690       -0.04850 
C         -6.25430       -0.04370       -0.16190 
C         -7.21250        0.77750       -1.02690 
C         -0.17200        0.82570       -1.05140 
C          3.86480        1.19840       -1.30970 
C         -2.37020        2.63610        0.28660 
C         -5.48100       -2.35380        0.39300 
C         -7.91100       -1.90450        0.02500 
C         -7.06940        2.26060       -0.67960 
H          8.61430       -1.10160       -0.78500 
C          2.51610       -2.15710        0.27480 
C         -0.56930       -1.80710        0.22490 
C          1.98040        1.65260        0.58120 
C          0.57360        1.61120        1.19790 
C         -1.91150       -1.18960        0.70410 
C          5.03130        1.08550        0.86410 
C          5.97140       -1.03930       -0.99360 
C          6.39100        1.13520        0.16440 
O          8.22080       -0.23360       -0.62180 
C         -6.49210       -1.53440       -0.41140 
C         -4.03030        0.79710        0.39330 
C         -4.83200        0.30460       -0.51810 
C          3.90560       -2.09140       -0.28850 
C          4.56590       -0.97830       -0.41960 
H          1.66760       -0.63560       -1.02950 
H          0.61840       -0.93820        1.82610 
H          2.83380        0.05660        1.70520 
H          2.56620       -2.35620        1.34530 
H          1.96050       -2.95440       -0.21880 
H         -0.53550       -1.85910       -0.86340 
H         -0.41990       -2.79340        0.66410 
H          2.58230        2.38570        1.11820 
H          1.90180        1.95570       -0.46290 
H          4.37950       -3.01080       -0.59900 
H         -1.76390        0.59450        1.95190 
H          0.08790        2.57990        1.08070 
H          0.63870        1.35260        2.25480 
H         -0.71250        0.04050       -1.58000 
H         -0.64030        1.78890       -1.25400 
H          0.86340        0.84630       -1.39150 
H         -2.21630       -1.64310        1.64730 
H         -2.68330       -1.34030       -0.05060 
H          4.68540        2.10060        1.05890 
H          5.12690        0.54650        1.80670 
H          3.52270        2.20010       -1.04920 
H          4.82460        1.26410       -1.82200 
H          3.13450        0.72430       -1.96550 
H         -2.43140        0.92040       -1.01470 
H          5.98680       -0.57010       -1.97730 
H          6.28890       -2.07870       -1.07710 
H          7.09630        1.69180        0.78150 
H          6.28450        1.63070       -0.80050 
H         -4.38860        0.95350        1.40010 
H         -2.45860        2.84460        1.35280 
H         -1.37120        2.90680       -0.05500 
H         -3.11150        3.21880       -0.26020 
H          6.95680       -0.80520        0.90940 
H         -4.47370        0.14820       -1.52490 
H         -6.43090        0.18130        0.88990 
H         -6.37100       -1.74890       -1.47320 
H         -6.97240        0.62600       -2.07930 
H         -8.23720        0.45740       -0.83840 
H         -5.60220       -2.13940        1.45480 
H         -5.65040       -3.41580        0.21520 
H         -4.47010       -2.09010        0.08210 
H         -8.63210       -1.40510       -0.62210 
H         -8.04380       -2.98390       -0.04820 
H         -8.06810       -1.58830        1.05620 
H         -7.81760        2.83540       -1.22530 
H         -7.21540        2.39860        0.39170 
H         -6.07310        2.60440       -0.95770 
