60

O          1.66080       -2.53600        2.46050 
O          2.41310       -0.33300        0.02010 
O         -2.76150       -1.22100        1.47940 
O         -1.28110       -1.67240       -0.32240 
O         -1.10480        3.07490        0.99180 
O          3.21310        1.79920        0.38540 
O         -3.29710       -2.71630       -0.72940 
O         -3.10330        3.14940       -0.16490 
C          1.04580       -1.61680        1.53730 
C         -0.35750       -1.22700        1.92720 
C          1.48250       -3.00560        1.12410 
C          1.85200       -0.35400        1.32560 
C         -0.36830        0.27500        1.75930 
C         -1.49660       -1.79560        1.08250 
C          0.84790        0.76160        1.47220 
C         -1.65450        0.91580        1.84130 
C         -2.74520        0.13540        1.72900 
C         -1.73360        2.39310        2.06270 
C          3.07450        0.81550       -0.32860 
C         -2.26980       -2.17960       -1.12050 
C          3.57560        0.69400       -1.75190 
C         -1.87460       -2.00680       -2.57170 
C          5.01990        0.17720       -1.84180 
C         -2.42500       -0.71620       -3.19810 
C          5.10230       -1.24650       -1.28800 
C          5.98790        1.08570       -1.07960 
C         -1.90900        3.39750       -0.06910 
C         -1.82750        0.50380       -2.49450 
C         -3.95280       -0.66270       -3.11840 
C         -1.11320        4.11120       -1.11960 
H         -0.53810       -1.45140        2.98820 
H          2.36500       -3.10640        0.50540
H          0.72840       -3.76280        0.95520 
H          2.64670       -0.26250        2.07620 
H         -1.56470       -2.86890        1.30240 
H          1.05520        1.80900        1.31950 
H         -3.75850        0.50210        1.82400 
H         -1.19810        2.65700        2.98250 
H         -2.76460        2.73940        2.20850 
H          3.49800        1.68750       -2.21080 
H          2.89380        0.05040       -2.32130 
H         -2.24640       -2.88280       -3.11750 
H         -0.78150       -2.04680       -2.65620 
H          5.31170        0.16070       -2.89890 
H         -2.12680       -0.69440       -4.25320 
H          6.10030       -1.66320       -1.46330 
H          4.37900       -1.90290       -1.78330 
H          4.91930       -1.28400       -0.20910 
H          5.90140        2.12170       -1.42330 
H          7.02170        0.76470       -1.24860 
H          5.81190        1.06590        0.00070 
H         -2.17300        0.59360       -1.46050 
H         -0.73330        0.45970       -2.48960 
H         -2.11890        1.42230       -3.01600 
H         -4.33080        0.20660       -3.66750 
H         -4.39730       -1.55770       -3.56610 
H         -4.31130       -0.57920       -2.08730 
H         -0.29390        3.47250       -1.45980 
H         -0.72760        5.05100       -0.71710 
H         -1.75800        4.33350       -1.97470 
