10

C 0.4551415410 0.3408957085 0.2100323971
H 0.2684142964 0.5553983642 1.2748669859
C -0.5805120688 -0.6684355398 -0.3135699219
C 1.9367202401 -0.2670780566 0.1106591076
O 2.8699458607 0.5925748323 0.1199474209
O 1.9962778316 -1.5430544152 0.0737562441
H -0.6669588297 -0.6088722435 -1.4079523709
H -0.1512903456 -1.6479703847 -0.0667222406
H 0.4440172203 1.2984036810 -0.3223335455
H -1.5859657458 -0.5473119463 0.1168459233
