24

O -4.1531956046 0.4249179813 -0.0737026564
C -3.1074765091 0.2884559046 -0.7205394863
C -1.9412965575 -0.4816108065 -0.1496999764
H -1.6902166052 -1.3485985579 -0.7751285039
O -2.2842498730 -0.8504457838 1.2228567702
C -0.6781370037 0.4009999654 -0.0556550313
H -0.5249767821 0.9900478251 -0.9648374604
O -0.8232898621 1.3028893261 1.0684729754
C 0.5450008561 -0.5073485321 0.1433742409
H 0.4283308399 -1.0660416104 1.0763243004
O 0.6356170526 -1.4583820199 -0.9616193161
C 1.8209738367 0.3373930390 0.1288057279
H 1.7077343241 1.2115107987 0.7755828993
O 1.9718945230 0.7185531966 -1.2868592279
C 3.0489407536 -0.5115452329 0.4790773342
O 4.1775741990 0.2210457732 -0.1248529392
H -2.9673259173 0.7100358217 -1.7266989415
H -3.2574748274 -0.5955622303 1.2981316193
H -1.3376574007 0.7241084458 1.7150436137
H 1.1052586582 -0.8864587673 -1.6510910738
H 2.9708140212 0.8137692101 -1.3741819185
H 3.1632461641 -0.6245840585 1.5623657112
H 2.9051693051 -1.4902815080 0.0049310064
H 4.9507426094 -0.3944682800 -0.2164996672
