18

N 1.4356827338 1.7889070568 -0.2056627783
C 1.2318240967 0.4860589907 0.4723225933
H 1.3062770362 0.6140987068 1.5578554868
C -0.1191060706 -0.2352198271 0.1401509388
C -1.3849327350 0.5395402170 0.5128261521
C -2.6293788866 0.0034727785 -0.3619380391
O -2.3043620445 -0.5227316004 -1.4774001474
O -3.7653648763 0.2071044815 0.1561402135
C 2.3450624255 -0.4261312833 0.0298608976
O 3.0341638783 -0.3380024044 -0.9843948157
O 2.4673150391 -1.5057590818 0.8988766939
H 1.6577937918 1.6002862563 -1.1918413143
H 0.5676120803 2.3338319135 -0.1542355498
H -0.2175281932 -0.4125574528 -0.9396328707
H -0.1105618717 -1.2118889203 0.6401154377
H -1.6439298295 0.4729741659 1.5743510618
H -1.2691557059 1.6061869390 0.2561348048
H 3.1349691315 -2.1284409360 0.4950512350
