21

C -2.3542735046 -1.4195920277 -0.3524522217
C -3.1041694079 0.6474952560 0.1286770241
C 0.1925803044 -0.7285674630 -0.5239256552
H -0.8581459659 1.4459795279 0.1881499953
H 0.7408614644 2.0902167445 1.2752950781
H 1.0512693907 2.1074723973 -0.3574418673
C -1.2826015142 -0.5682387145 -0.2942311001
O 3.0777665847 1.1456875483 -0.4670091622
O 2.9760955491 -1.0979137862 0.0581902380
C 2.4827114227 0.1678009930 -0.0334821096
H 3.9200444907 -1.1405333645 -0.2647735714
C 1.0298100677 0.1829976238 0.4280113581
N 0.5337629741 1.6115933603 0.3879652492
N -3.4844049382 -0.6390476981 -0.0880983618
N -1.7764085379 0.7078394054 0.0044130564
H 0.9583305246 -0.1941989359 1.4505236763
H 0.5117915501 -1.7609992199 -0.3666858286
H 0.4275325473 -0.4576868880 -1.5623377808
H -2.4114135187 -2.4735156986 -0.5541795474
H -3.7675802853 1.4606755950 0.3616588252
H -4.4401191978 -0.9829446552 -0.0634872944
