48

C          0.63510       -0.65580       -0.45320 
C         -0.63510       -0.65590        0.45310 
C          1.73180       -1.26540        0.43790 
C         -1.73180       -1.26530       -0.43800 
C          3.97720       -0.45330       -0.31160 
C         -3.97720       -0.45340        0.31150 
C          2.88120        0.69570        1.48310 
C         -2.88120        0.69590       -1.48300 
C          3.94710        1.57130        1.58020 
C         -3.94710        1.57160       -1.57990 
C          6.05900       -0.78180       -2.00530 
C         -6.05900       -0.78210        2.00520 
H          6.77450        2.00900        1.43400 
H         -6.77450        2.00920       -1.43370 
C          2.89620       -0.31420        0.53960 
C         -2.89620       -0.31410       -0.53970 
C          5.04810        0.42050       -0.21970 
C         -5.04810        0.42040        0.21970 
C          5.03300        1.43750        0.73060 
C         -5.03300        1.43760       -0.73040 
C          0.25490       -1.68200       -1.54760 
C         -0.25490       -1.68220        1.54730 
O          6.08180        2.29810        0.82440 
O         -6.08180        2.29820       -0.82410 
O          6.11210        0.28470       -1.05570 
O         -6.11210        0.28450        1.05570 
O          1.16020       -1.47800        1.73870 
O         -1.16010       -1.47780       -1.73900 
H         -0.89360        0.32960        0.84050 
H          0.89360        0.32970       -0.84050 
H          2.06330       -2.21570        0.01930 
H         -2.06490       -2.21460       -0.01840 
H          0.79900       -1.47690       -2.46960 
H          0.45170       -2.69760       -1.20430 
H         -0.79900       -1.47720        2.46930 
H         -0.45170       -2.69780        1.20380 
H          3.98840       -1.24600       -1.04500 
H         -3.98840       -1.24620        1.04480 
H          2.03540        0.80090        2.14630 
H         -2.03530        0.80120       -2.14620 
H          3.93270        2.35980        2.31810 
H         -3.93270        2.36010       -2.31770 
H          5.97660       -1.73290       -1.47940 
H          5.19260       -0.64860       -2.65320 
H          6.96740       -0.77730       -2.60780 
H         -5.97660       -1.73310        1.47910 
H         -5.19260       -0.64900        2.65310 
H         -6.96730       -0.77770        2.60770 
