17

C 0.3776508234 0.5005596787 0.5201342728
H 0.3318690586 0.3129686588 1.6006186958
C -0.8165289278 -0.1806766001 -0.1870478312
H -0.7526400823 0.0321521191 -1.2642355839
C -0.7444617928 -1.7109723205 0.0186817402
C -2.1519330309 0.4038417109 0.3401056798
C -3.3934549803 -0.0624879555 -0.4521422573
H 0.2077132956 -2.1048896496 -0.3563001995
H -0.8165627027 -1.9458092430 1.0883890923
H -1.5557806032 -2.2276532022 -0.5049881419
H -2.2606009332 0.1277961281 1.3986578515
H -2.0947253550 1.5004106702 0.2975091464
H -3.2931293736 0.2055642265 -1.5110699010
H -3.5243096303 -1.1475656317 -0.3839796588
H -4.3019554242 0.4125327323 -0.0641797760
H 1.3302125329 0.1083056313 0.1444838018
H 0.3621271259 1.5851030467 0.3581530688
