24
 
C -1.13361 0.32570 -0.02502
C -1.74998 -0.94292 -0.04536
O -3.09732 -1.05307 -0.24638
C -0.97559 -2.08100 0.14013
C 0.40544 -1.96304 0.34556
C 1.02765 -0.71292 0.36921
C 2.52567 -0.57889 0.60372
C 3.25071 0.12404 -0.51775
C 3.99711 1.22466 -0.37992
C 0.23912 0.43767 0.17693
O -2.00736 1.37149 -0.22063
C -1.49346 2.69913 -0.20430
H -3.45815 -0.15898 -0.35099
H -1.46083 -3.05190 0.12244
H 0.99800 -2.86242 0.49176
H 2.71610 -0.04401 1.54410
H 2.94544 -1.58622 0.72694
H 3.13518 -0.32129 -1.50695
H 4.13474 1.70220 0.58855
H 4.50102 1.68135 -1.22740
H 0.71545 1.41238 0.18019
H -0.75324 2.84588 -1.00018
H -2.34906 3.35397 -0.37550
H -1.03999 2.93395 0.76655

            
