32

C          2.81620       -1.67660        0.05360 
C          3.39590        1.02330        0.43770 
C          4.10170       -1.27160        0.37580 
C          4.39040        0.06640        0.56690 
C         -1.95460       -0.71780       -0.91040 
C         -4.39250        0.66310       -0.58850 
C         -4.79050       -0.57970        1.67210 
H          0.93130       -3.03210       -0.49030 
O          1.23600        2.81200        0.12970 
O         -1.26880        1.92700       -0.50800 
O          0.16450       -2.45430       -0.60540 
C         -3.92330       -0.29950        0.47180 
C         -0.57100       -0.23550       -0.55820 
C          0.43230       -1.14310       -0.42240 
C          1.01940        1.62900       -0.02990 
C         -0.35110        1.13860       -0.37940 
C          1.80420       -0.73020       -0.07990 
C          2.10170        0.63260        0.11500 
C         -2.76160       -0.89260        0.35030 
H          2.60090       -2.72410       -0.09780 
H          3.62550        2.06790        0.58780 
H         -2.44140        0.01410       -1.55490 
H         -1.88480       -1.67210       -1.43240 
H          4.88480       -2.00810        0.47880 
H          5.39650        0.36810        0.81790 
H         -2.38230       -1.50690        1.15340 
H         -4.86770        0.10880       -1.39780 
H         -5.11000        1.35980       -0.15500 
H         -3.53910        1.21700       -0.97970 
H         -4.55110        0.12750        2.46630 
H         -5.83940       -0.47370        1.39520 
H         -4.60810       -1.59540        2.02290 
