38 

C          0.45270       -0.50360        0.33140 
C          1.41150       -1.66290        0.04780 
C          2.17390        1.11770       -0.06950 
C          2.83630       -1.23900        0.41740 
C          3.20180        0.02350       -0.36930 
C         -1.57500        1.20550        0.85790 
C         -4.18430        0.61490        0.14690 
C         -2.58840        2.10030        1.14090 
C         -3.89200        1.80520        0.78620 
C          2.49780        2.36270       -0.89770 
C         -3.49350       -1.58120       -0.83500 
H          0.13820       -3.11780        0.65050 
H          3.57120       -3.12170        0.54530 
H          5.20420       -0.17500       -0.14040 
H          1.75730        4.24370       -1.02040 
H         -5.17540       -2.46080       -1.54150 
C         -1.86580        0.00990        0.21670 
C         -3.17420       -0.28350       -0.13850 
O          1.03300       -2.79780        0.82940 
O          3.74810       -2.28860        0.08740 
O          4.50200        0.46980        0.02120 
O          1.60930        3.42120       -0.53380 
O         -4.89720       -1.65000       -1.09370 
O         -0.87040       -0.87190       -0.06330 
O          0.86740        0.64740       -0.40710 
H          0.46370       -0.27500        1.39720 
H          1.37060       -1.91860       -1.01100 
H          2.20760        1.36740        0.99090 
H          2.88950       -1.03230        1.48630 
H         -0.55640        1.43830        1.13140 
H          3.19790       -0.19740       -1.43670 
H          3.52600        2.66930       -0.70590 
H          2.37790        2.13580       -1.95700 
H         -5.20310        0.38680       -0.12950 
H         -2.94760       -1.63190       -1.77710 
H         -3.19980       -2.41660       -0.19950 
H         -2.36260        3.03090        1.64030 
H         -4.68300        2.50620        1.00840 
