35 

C          2.38760        1.06990       -1.34370 
C          2.02820        0.25180        0.88620 
C          3.71420        0.69260       -1.26830 
C          3.35480       -0.12540        0.96170 
C         -1.29210       -2.64740        0.21260 
H         -2.41110        1.75440        2.55200 
H         -4.00600        2.31400       -0.94190 
H         -4.11630       -1.03190       -1.72450 
H          0.09150       -4.08970        0.53910 
H          6.09210        0.40880        0.30470 
C          1.54180        0.85000       -0.26670 
C          4.20050        0.09400       -0.11550 
O         -2.77020        1.34750        1.75160 
O         -3.95800        1.36130       -0.78300 
O         -3.21560       -1.30550       -1.50310 
O          0.04150       -3.14500        0.33900 
O          5.50630       -0.27820       -0.04160 
O          0.23570        1.22130       -0.34100 
C         -0.57790        0.96470        0.80540 
C         -1.97220        1.55710        0.58490 
C         -1.25040       -1.15080       -0.10250 
C         -2.62810        0.86640       -0.61470 
C         -2.67170       -0.64340       -0.35950 
O         -0.68750       -0.44600        1.00590 
H         -0.12320        1.42240        1.68390 
H         -1.88690        2.62580        0.38800 
H         -0.63850       -0.98270       -0.98880 
H         -2.04710        1.06880       -1.51450 
H         -3.29470       -0.84870        0.51090 
H         -1.80160       -3.17450       -0.59410 
H         -1.82960       -2.80710        1.14730 
H          2.01000        1.54010       -2.23960 
H          1.36950        0.08050        1.72490 
H          4.37280        0.86350       -2.10710 
H          3.73350       -0.59160        1.85930 
