174

C          0.01076        2.55418       -1.31442 
C          1.00460        1.29759       -1.61906 
O          0.41241       -0.05522       -1.84167 
C         -0.72283       -0.47172       -0.98957 
C         -1.81739        0.77646       -1.62070 
C         -1.21101        1.90944       -0.63566 
O         -4.16479       -0.06229       -1.74941 
C         -4.49420       -1.48325       -1.97367 
C         -3.60055       -2.59939       -2.79698 
C         -2.82166       -3.48995       -2.07155 
C         -2.84637       -4.89143       -1.88874 
C         -2.58038       -5.32739       -3.18637 
C         -2.56144       -4.32949       -4.18837 
C         -3.24756       -3.09337       -4.07529 
O         -3.23165       -5.76139       -0.72667 
C         -3.92122       -6.05499        0.51130 
C         -4.96676       -5.45489        1.50958 
O         -3.58778       -7.15467        0.92135 
C         -5.84901       -4.34860        1.41844 
C         -5.77303       -3.28708        2.32478 
C         -5.43670       -3.60512        3.63213 
C         -5.28397       -4.96597        3.89988 
C         -4.96223       -5.85527        2.85835 
O         -6.17141       -1.99639        1.98510 
O         -5.50574       -2.65370        4.65143 
O         -5.48215       -5.43283        5.19771 
O         -2.04977       -6.59129       -3.42208 
O         -1.66451       -4.47786       -5.23992 
O         -5.36222       -1.70594       -1.13933 
O         -0.93053        1.61408        0.76755 
C         -0.73197        2.71471        1.48964 
C          0.61905        3.28241        1.98725 
C          1.66072        2.38156        2.19037 
C          2.74263        2.65412        3.03617 
C          2.94005        3.95674        3.50185 
C          2.15963        4.96233        2.94635 
C          1.13346        4.59745        2.07464 
O          3.54514        1.63594        3.55399 
C          3.35273        0.31066        3.68062 
C          2.20278       -0.59151        3.26354 
C          0.82809       -0.30026        3.18268 
C          0.00243       -1.29825        2.69523 
C          0.76405       -1.98500        1.76355 
C          1.68301       -2.78667        2.41167 
C          2.53956       -1.94860        3.12553 
O          1.30802       -1.22111        0.73728 
O          2.18378       -3.89470        1.73714 
O         -1.34278       -1.03628        2.45959 
O          4.25420       -0.25570        4.27466 
O          3.96885        4.27833        4.38857 
O          2.52045        6.30653        3.08221 
O         -1.85244        3.17550        1.52425 
O          0.37308        3.65455       -0.37750 
C         -0.49473        4.73358       -0.29556 
C         -1.28285        5.35913        0.88558 
C         -1.32530        5.17434        2.30079 
C         -2.54675        4.90002        2.95349 
C         -3.68439        5.29408        2.24348 
C         -3.56665        6.06133        1.08335 
C         -2.33551        6.15608        0.43800 
O         -0.22172        5.58328       -1.12884 
O         -4.70388        6.54742        0.44573 
O         -4.95253        4.88410        2.66254 
O         -2.77081        3.89224        3.94385 
C         -2.38002        3.10385        4.98702 
C         -1.07196        2.91436        5.73387 
C          0.06078        3.65557        5.42782 
C          1.18809        2.85565        5.57304 
C          1.44074        2.36624        6.84455 
C          0.37347        1.51826        7.15598 
C         -0.87898        1.81721        6.59540 
O         -3.28666        2.42158        5.43745 
O          2.74059        1.91881        7.08606 
O          1.30947        1.87564        4.63438 
O          0.63802        0.20122        7.54794 
O          1.74241        0.71201       -0.53223 
C          2.87544        1.27062       -0.12498 
C          3.33654        2.64063       -0.53252 
C          4.00898        2.65782       -1.74883 
C          5.16187        3.43363       -1.76053 
C          5.10747        4.67198       -1.11267 
C          4.31878        4.72559        0.03298 
C          3.81239        3.50337        0.45741 
O          6.38123        2.85335       -2.10753 
C          6.56622        1.51502       -2.15264 
C          5.89466        0.40629       -1.35458 
C          5.86056        0.38315        0.04551 
C          5.56872       -0.79764        0.74703 
C          5.28195       -1.97722        0.05554 
C          5.42038       -1.99641       -1.33116 
C          5.73205       -0.81819       -2.01222 
O          5.50167        5.84592       -1.74668 
O          4.33227        5.82747        0.88144 
O          3.45988        0.72178        0.79342 
O          7.37754        1.13986       -2.98146 
O          4.93312       -3.14809        0.73226 
O          5.57683       -0.81859        2.14061 
O          5.33503       -3.19932       -2.03169 
C         -1.07595       -2.18563       -0.69290 
O         -2.10212       -3.09836        0.22149 
C         -3.54728       -3.66572        0.19489 
C         -4.83876       -3.94770       -0.78936 
O         -3.62877       -3.69140        1.40814 
C         -5.11159       -3.87220       -2.18138 
C         -5.90314       -2.96530       -2.93094 
C         -6.89620       -3.94470       -3.08933 
C         -6.89195       -4.94630       -2.06572 
C         -5.93444       -4.87572       -0.98650 
O         -5.38966       -1.85287       -3.91039 
C         -4.36416       -0.72711       -4.08252 
C         -3.09741       -0.09465       -3.31859 
C         -2.51109       -0.94152       -2.17000 
C         -2.82487       -0.59780       -0.57223 
C         -3.33802        0.84136       -0.26628 
C         -3.61701        1.79020       -1.44539 
C         -3.44400        1.33742       -2.90084 
O         -3.56456        1.28839        1.03606 
O         -3.85498        3.13842       -1.19261 
O         -3.43285       -1.45716        0.29618 
O         -4.63362       -0.06706       -5.07223 
O         -7.28521       -4.30387       -4.37820 
O         -7.26379       -6.23874       -2.45709 
H         -0.28501        3.01368       -2.27127 
H          1.66932        1.52703       -2.46239 
H         -0.57588       -0.41628        0.09208 
H         -1.30201        1.02677       -2.57672 
H         -0.33520        1.49345       -0.18905 
H         -2.98442       -2.77306       -1.43645 
H         -3.19684       -2.45768       -4.94942 
H         -6.85156       -4.46983        1.02270 
H         -4.76275       -6.88783        3.11536 
H         -5.65786       -1.68021        1.25170 
H         -5.56263       -1.77149        4.29984 
H         -5.83679       -4.74336        5.75129 
H         -2.25031       -7.17657       -2.70065 
H         -0.91217       -4.98458       -4.95223 
H          1.55598        1.42340        1.73434 
H          0.95885        5.37830        1.35010 
H          0.35514        0.66303        3.23478 
H          3.52909       -2.30625        3.37103 
H          1.99625       -1.68113        0.27277 
H          1.58342       -4.13506        1.03645 
H         -1.55519       -0.11282        2.53841 
H          4.68280        3.65460        4.35096 
H          3.36672        6.41547        3.50318 
H         -0.67184        5.78763        2.91050 
H         -2.30248        6.60124       -0.54910 
H         -5.49300        6.33773        0.93046 
H         -4.93872        4.35557        3.45158 
H         -0.00752        4.30963        4.57228 
H         -1.67078        1.08727        6.72898 
H          3.31917        2.18868        6.37711 
H          1.50458        1.04626        5.05467 
H          1.53150       -0.06907        7.35697 
H          3.95550        1.78623       -2.38907 
H          4.24254        3.08792        1.35625 
H          6.08097        1.29238        0.59247 
H          5.89741       -0.87492       -3.08100 
H          5.48856        5.73142       -2.68991 
H          4.14556        6.61636        0.38578 
H          4.94254       -3.04551        1.67549 
H          5.94687       -0.02602        2.50831 
H          5.29485       -3.94778       -1.44654 
H         -0.74733       -2.77738       -1.56505 
H         -0.23040       -2.51699       -0.11708 
H         -4.81363       -4.70196       -2.83569 
H         -5.91620       -5.85609       -0.52726 
H         -1.68235       -1.43088       -2.68543 
H         -3.83270        2.00137       -3.66478 
H         -3.86921        0.61963        1.63259 
H         -3.68803        3.35094       -0.28134 
H         -3.13262       -1.32271        1.18383 
H         -6.73208       -3.87413       -5.02234 
H         -6.91265       -6.45618       -3.31793
