19

N 1.1299214196 1.7737656726 -0.2746649260
C 1.1253155063 0.4600264496 0.3889561420
H 1.2068647625 0.6023520854 1.4718800683
C -0.1996028536 -0.2883343852 0.0885044874
C -1.4068139314 0.5477929579 0.5294712898
C -2.6686985622 0.0874551119 -0.1543049474
O -2.7531341572 -0.6029421732 -1.1650396312
O -3.7821342510 0.5822092104 0.5011785423
C 2.2902004468 -0.4099373635 -0.0654447065
O 3.0861649315 -0.1487144391 -0.9595615258
O 2.3162408022 -1.5877717727 0.6543148131
H 1.8305601427 2.4017595966 0.1316088481
H 1.3352014782 1.6576644004 -1.2741218061
H -0.2824296648 -0.4669017927 -0.9899341885
H -0.1741121535 -1.2607033157 0.5876781947
H -1.5602360074 0.5282109707 1.6125359839
H -1.2026268536 1.5879475925 0.2365434669
H -4.5921678481 0.2877296513 -0.0023442090
H 3.0605167929 -2.1583884571 0.3117141038
